/*---------------------------------------------------------------------------*\
  =========                 |
  \\      /  F ield         | OpenFOAM: The Open Source CFD Toolbox
   \\    /   O peration     | Website:  https://openfoam.org
    \\  /    A nd           | Version:  7
     \\/     M anipulation  |
\*---------------------------------------------------------------------------*/
Build  : 7-3bcbaf946ae9
Exec   : icoFoam
Date   : Jan 12 2021
Time   : 08:52:28
Host   : "clement1n0t-Inspiron-5468"
PID    : 25000
I/O    : uncollated
Case   : /home/clement1n0t/LCPetro/server/api-openfoam/cases/elbow
nProcs : 1
sigFpe : Enabling floating point exception trapping (FOAM_SIGFPE).
fileModificationChecking : Monitoring run-time modified files using timeStampMaster (fileModificationSkew 10)
allowSystemOperations : Allowing user-supplied system call operations

// * * * * * * * * * * * * * * * * * * * * * * * * * * * * * * * * * * * * * //
Create time

Create mesh for time = 0

Reading transportProperties

Reading field p

Reading field U

Reading/calculating face flux field phi


Starting time loop

Time = 0.05

Courant Number mean: 0.000297101 max: 0.057735
smoothSolver:  Solving for Ux, Initial residual = 1, Final residual = 1.79741e-09, No Iterations 2
smoothSolver:  Solving for Uy, Initial residual = 1, Final residual = 1.6407e-07, No Iterations 2
DICPCG:  Solving for p, Initial residual = 1, Final residual = 0.0346453, No Iterations 62
DICPCG:  Solving for p, Initial residual = 0.0976158, Final residual = 0.00388378, No Iterations 3
DICPCG:  Solving for p, Initial residual = 0.00940451, Final residual = 0.000379656, No Iterations 48
time step continuity errors : sum local = 4.46626e-05, global = -2.05343e-06, cumulative = -2.05343e-06
DICPCG:  Solving for p, Initial residual = 0.00299373, Final residual = 0.000147333, No Iterations 42
DICPCG:  Solving for p, Initial residual = 0.00130352, Final residual = 6.46778e-05, No Iterations 19
DICPCG:  Solving for p, Initial residual = 0.000266369, Final residual = 8.17575e-07, No Iterations 61
time step continuity errors : sum local = 9.18058e-08, global = 2.43735e-10, cumulative = -2.05318e-06
ExecutionTime = 0.01 s  ClockTime = 0 s

Time = 0.1

Courant Number mean: 0.0592533 max: 0.173553
smoothSolver:  Solving for Ux, Initial residual = 0.418826, Final residual = 4.02388e-07, No Iterations 2
smoothSolver:  Solving for Uy, Initial residual = 0.429314, Final residual = 7.74877e-07, No Iterations 2
DICPCG:  Solving for p, Initial residual = 0.0152638, Final residual = 0.000657597, No Iterations 60
DICPCG:  Solving for p, Initial residual = 0.53684, Final residual = 0.0216207, No Iterations 3
DICPCG:  Solving for p, Initial residual = 0.0936348, Final residual = 0.00362586, No Iterations 48
time step continuity errors : sum local = 4.27865e-05, global = 2.00782e-06, cumulative = -4.53612e-08
DICPCG:  Solving for p, Initial residual = 0.0861914, Final residual = 0.00241978, No Iterations 52
DICPCG:  Solving for p, Initial residual = 0.228903, Final residual = 0.0101749, No Iterations 3
DICPCG:  Solving for p, Initial residual = 0.0287422, Final residual = 7.03362e-07, No Iterations 72
time step continuity errors : sum local = 1.4807e-09, global = 5.3513e-11, cumulative = -4.53077e-08
ExecutionTime = 0.02 s  ClockTime = 0 s

Time = 0.15

Courant Number mean: 0.0592494 max: 0.176535
smoothSolver:  Solving for Ux, Initial residual = 0.0143645, Final residual = 1.89878e-08, No Iterations 2
smoothSolver:  Solving for Uy, Initial residual = 0.0112308, Final residual = 9.79565e-06, No Iterations 1
DICPCG:  Solving for p, Initial residual = 0.275316, Final residual = 0.00951371, No Iterations 4
DICPCG:  Solving for p, Initial residual = 0.0486645, Final residual = 0.00209625, No Iterations 51
DICPCG:  Solving for p, Initial residual = 0.0149383, Final residual = 0.000743763, No Iterations 9
time step continuity errors : sum local = 9.30238e-07, global = 2.57118e-08, cumulative = -1.95959e-08
DICPCG:  Solving for p, Initial residual = 0.00904955, Final residual = 0.000449588, No Iterations 10
DICPCG:  Solving for p, Initial residual = 0.00183033, Final residual = 6.65575e-05, No Iterations 47
DICPCG:  Solving for p, Initial residual = 0.000770433, Final residual = 9.87663e-07, No Iterations 62
time step continuity errors : sum local = 1.22764e-09, global = 6.8705e-12, cumulative = -1.9589e-08
ExecutionTime = 0.02 s  ClockTime = 0 s

Time = 0.2

Courant Number mean: 0.0592532 max: 0.178638
smoothSolver:  Solving for Ux, Initial residual = 0.0103612, Final residual = 9.08266e-06, No Iterations 1
smoothSolver:  Solving for Uy, Initial residual = 0.00833969, Final residual = 7.18516e-06, No Iterations 1
DICPCG:  Solving for p, Initial residual = 0.145482, Final residual = 0.00566233, No Iterations 3
DICPCG:  Solving for p, Initial residual = 0.0193124, Final residual = 0.000961355, No Iterations 45
DICPCG:  Solving for p, Initial residual = 0.00615501, Final residual = 0.000289229, No Iterations 10
time step continuity errors : sum local = 2.91982e-07, global = 2.03064e-08, cumulative = 7.17345e-10
DICPCG:  Solving for p, Initial residual = 0.00372704, Final residual = 0.00016492, No Iterations 17
DICPCG:  Solving for p, Initial residual = 0.000764411, Final residual = 3.44428e-05, No Iterations 47
DICPCG:  Solving for p, Initial residual = 0.000265009, Final residual = 8.29663e-07, No Iterations 60
time step continuity errors : sum local = 8.35327e-10, global = 3.70701e-12, cumulative = 7.21052e-10
ExecutionTime = 0.03 s  ClockTime = 0 s

Time = 0.25

Courant Number mean: 0.0592577 max: 0.180128
smoothSolver:  Solving for Ux, Initial residual = 0.00875007, Final residual = 7.62918e-06, No Iterations 1
smoothSolver:  Solving for Uy, Initial residual = 0.00707499, Final residual = 6.07966e-06, No Iterations 1
DICPCG:  Solving for p, Initial residual = 0.101213, Final residual = 0.00340343, No Iterations 3
DICPCG:  Solving for p, Initial residual = 0.0112261, Final residual = 0.000509074, No Iterations 46
DICPCG:  Solving for p, Initial residual = 0.0040199, Final residual = 0.000191788, No Iterations 12
time step continuity errors : sum local = 1.68258e-07, global = -4.3046e-09, cumulative = -3.58355e-09
DICPCG:  Solving for p, Initial residual = 0.00246041, Final residual = 0.000120829, No Iterations 8
DICPCG:  Solving for p, Initial residual = 0.000462755, Final residual = 1.85559e-05, No Iterations 47
DICPCG:  Solving for p, Initial residual = 0.000218626, Final residual = 7.70386e-07, No Iterations 60
time step continuity errors : sum local = 6.74839e-10, global = -1.86505e-11, cumulative = -3.6022e-09
ExecutionTime = 0.04 s  ClockTime = 0 s

Time = 0.3

Courant Number mean: 0.0592625 max: 0.181351
smoothSolver:  Solving for Ux, Initial residual = 0.00765395, Final residual = 6.61232e-06, No Iterations 1
smoothSolver:  Solving for Uy, Initial residual = 0.00620659, Final residual = 5.33554e-06, No Iterations 1
DICPCG:  Solving for p, Initial residual = 0.0812374, Final residual = 0.00251821, No Iterations 3
DICPCG:  Solving for p, Initial residual = 0.00831747, Final residual = 0.000411729, No Iterations 50
DICPCG:  Solving for p, Initial residual = 0.00285809, Final residual = 0.000107962, No Iterations 12
time step continuity errors : sum local = 8.49299e-08, global = -4.22972e-09, cumulative = -7.83192e-09
DICPCG:  Solving for p, Initial residual = 0.00195452, Final residual = 9.57203e-05, No Iterations 7
DICPCG:  Solving for p, Initial residual = 0.00035964, Final residual = 1.43017e-05, No Iterations 44
DICPCG:  Solving for p, Initial residual = 0.000162976, Final residual = 8.29204e-07, No Iterations 51
time step continuity errors : sum local = 6.51849e-10, global = -1.76969e-11, cumulative = -7.84961e-09
ExecutionTime = 0.04 s  ClockTime = 0 s

Time = 0.35

Courant Number mean: 0.0592673 max: 0.182119
smoothSolver:  Solving for Ux, Initial residual = 0.00683361, Final residual = 5.84627e-06, No Iterations 1
smoothSolver:  Solving for Uy, Initial residual = 0.00552, Final residual = 4.7953e-06, No Iterations 1
DICPCG:  Solving for p, Initial residual = 0.0665948, Final residual = 0.00191832, No Iterations 3
DICPCG:  Solving for p, Initial residual = 0.00661635, Final residual = 0.000330057, No Iterations 47
DICPCG:  Solving for p, Initial residual = 0.00196565, Final residual = 9.35093e-05, No Iterations 13
time step continuity errors : sum local = 6.7214e-08, global = -4.45977e-09, cumulative = -1.23094e-08
DICPCG:  Solving for p, Initial residual = 0.00153594, Final residual = 7.43084e-05, No Iterations 8
DICPCG:  Solving for p, Initial residual = 0.000286831, Final residual = 1.19812e-05, No Iterations 25
DICPCG:  Solving for p, Initial residual = 8.20647e-05, Final residual = 8.65197e-07, No Iterations 52
time step continuity errors : sum local = 6.22262e-10, global = 1.26069e-11, cumulative = -1.22968e-08
ExecutionTime = 0.05 s  ClockTime = 0 s

Time = 0.4

Courant Number mean: 0.059272 max: 0.182721
smoothSolver:  Solving for Ux, Initial residual = 0.00614856, Final residual = 5.20978e-06, No Iterations 1
smoothSolver:  Solving for Uy, Initial residual = 0.00496944, Final residual = 4.27102e-06, No Iterations 1
DICPCG:  Solving for p, Initial residual = 0.0605766, Final residual = 0.00163729, No Iterations 3
DICPCG:  Solving for p, Initial residual = 0.00597738, Final residual = 0.000264469, No Iterations 47
DICPCG:  Solving for p, Initial residual = 0.0014526, Final residual = 7.16504e-05, No Iterations 6
time step continuity errors : sum local = 4.74512e-08, global = 2.74604e-10, cumulative = -1.20222e-08
DICPCG:  Solving for p, Initial residual = 0.00132747, Final residual = 6.13982e-05, No Iterations 7
DICPCG:  Solving for p, Initial residual = 0.000240387, Final residual = 1.19504e-05, No Iterations 44
DICPCG:  Solving for p, Initial residual = 8.32014e-05, Final residual = 9.86987e-07, No Iterations 27
time step continuity errors : sum local = 6.53682e-10, global = 1.06993e-11, cumulative = -1.20115e-08
ExecutionTime = 0.05 s  ClockTime = 0 s

Time = 0.45

Courant Number mean: 0.0592763 max: 0.183342
smoothSolver:  Solving for Ux, Initial residual = 0.00556064, Final residual = 4.66108e-06, No Iterations 1
smoothSolver:  Solving for Uy, Initial residual = 0.00451436, Final residual = 3.84662e-06, No Iterations 1
DICPCG:  Solving for p, Initial residual = 0.0523277, Final residual = 0.00146042, No Iterations 3
DICPCG:  Solving for p, Initial residual = 0.00509009, Final residual = 0.000244606, No Iterations 14
DICPCG:  Solving for p, Initial residual = 0.000931772, Final residual = 3.86668e-05, No Iterations 44
time step continuity errors : sum local = 2.38092e-08, global = -7.38736e-11, cumulative = -1.20854e-08
DICPCG:  Solving for p, Initial residual = 0.00133587, Final residual = 6.47254e-05, No Iterations 4
DICPCG:  Solving for p, Initial residual = 0.000225618, Final residual = 8.75144e-06, No Iterations 55
DICPCG:  Solving for p, Initial residual = 5.71221e-05, Final residual = 7.81813e-07, No Iterations 18
time step continuity errors : sum local = 4.83823e-10, global = -5.91053e-12, cumulative = -1.20913e-08
ExecutionTime = 0.06 s  ClockTime = 0 s

Time = 0.5

Courant Number mean: 0.0592802 max: 0.183902
smoothSolver:  Solving for Ux, Initial residual = 0.00507987, Final residual = 4.22328e-06, No Iterations 1
smoothSolver:  Solving for Uy, Initial residual = 0.00411378, Final residual = 3.48961e-06, No Iterations 1
DICPCG:  Solving for p, Initial residual = 0.0453969, Final residual = 0.0013431, No Iterations 3
DICPCG:  Solving for p, Initial residual = 0.00457883, Final residual = 0.000212568, No Iterations 14
DICPCG:  Solving for p, Initial residual = 0.000829436, Final residual = 3.96692e-05, No Iterations 22
time step continuity errors : sum local = 2.29696e-08, global = -4.66158e-09, cumulative = -1.67528e-08
DICPCG:  Solving for p, Initial residual = 0.00102015, Final residual = 4.35124e-05, No Iterations 7
DICPCG:  Solving for p, Initial residual = 0.000188721, Final residual = 8.26631e-06, No Iterations 49
DICPCG:  Solving for p, Initial residual = 0.000112741, Final residual = 8.63425e-07, No Iterations 49
time step continuity errors : sum local = 5.00878e-10, global = 1.70466e-11, cumulative = -1.67358e-08
ExecutionTime = 0.06 s  ClockTime = 0 s

Time = 0.55

Courant Number mean: 0.0592837 max: 0.184417
smoothSolver:  Solving for Ux, Initial residual = 0.00465072, Final residual = 3.84089e-06, No Iterations 1
smoothSolver:  Solving for Uy, Initial residual = 0.00378097, Final residual = 3.22917e-06, No Iterations 1
DICPCG:  Solving for p, Initial residual = 0.0417982, Final residual = 0.00134121, No Iterations 3
DICPCG:  Solving for p, Initial residual = 0.0042959, Final residual = 0.000184099, No Iterations 12
DICPCG:  Solving for p, Initial residual = 0.000818789, Final residual = 3.81073e-05, No Iterations 21
time step continuity errors : sum local = 2.08431e-08, global = 4.99641e-09, cumulative = -1.17394e-08
DICPCG:  Solving for p, Initial residual = 0.000916574, Final residual = 3.87974e-05, No Iterations 13
DICPCG:  Solving for p, Initial residual = 0.000176246, Final residual = 8.56745e-06, No Iterations 39
DICPCG:  Solving for p, Initial residual = 7.13237e-05, Final residual = 9.31852e-07, No Iterations 27
time step continuity errors : sum local = 5.09394e-10, global = -9.74468e-11, cumulative = -1.18368e-08
ExecutionTime = 0.06 s  ClockTime = 0 s

Time = 0.6

Courant Number mean: 0.0592867 max: 0.184905
smoothSolver:  Solving for Ux, Initial residual = 0.00427904, Final residual = 3.49467e-06, No Iterations 1
smoothSolver:  Solving for Uy, Initial residual = 0.00349234, Final residual = 2.99847e-06, No Iterations 1
DICPCG:  Solving for p, Initial residual = 0.0387025, Final residual = 0.00113403, No Iterations 3
DICPCG:  Solving for p, Initial residual = 0.00384724, Final residual = 0.000171897, No Iterations 14
DICPCG:  Solving for p, Initial residual = 0.0007236, Final residual = 3.46176e-05, No Iterations 44
time step continuity errors : sum local = 1.79338e-08, global = 3.83291e-10, cumulative = -1.14535e-08
DICPCG:  Solving for p, Initial residual = 0.000830505, Final residual = 3.79263e-05, No Iterations 5
DICPCG:  Solving for p, Initial residual = 0.000154315, Final residual = 7.55294e-06, No Iterations 19
DICPCG:  Solving for p, Initial residual = 3.62939e-05, Final residual = 9.84864e-07, No Iterations 47
time step continuity errors : sum local = 5.09875e-10, global = -6.96451e-11, cumulative = -1.15232e-08
ExecutionTime = 0.07 s  ClockTime = 0 s

Time = 0.65

Courant Number mean: 0.0592893 max: 0.185398
smoothSolver:  Solving for Ux, Initial residual = 0.00395843, Final residual = 3.19772e-06, No Iterations 1
smoothSolver:  Solving for Uy, Initial residual = 0.00323758, Final residual = 2.80755e-06, No Iterations 1
DICPCG:  Solving for p, Initial residual = 0.0357398, Final residual = 0.00106254, No Iterations 3
DICPCG:  Solving for p, Initial residual = 0.00379051, Final residual = 0.000179778, No Iterations 13
DICPCG:  Solving for p, Initial residual = 0.000737467, Final residual = 2.87953e-05, No Iterations 49
time step continuity errors : sum local = 1.41815e-08, global = 3.9795e-10, cumulative = -1.11252e-08
DICPCG:  Solving for p, Initial residual = 0.000826832, Final residual = 3.77725e-05, No Iterations 5
DICPCG:  Solving for p, Initial residual = 0.000139158, Final residual = 6.04136e-06, No Iterations 49
DICPCG:  Solving for p, Initial residual = 4.44962e-05, Final residual = 9.98867e-07, No Iterations 16
time step continuity errors : sum local = 4.90271e-10, global = 3.19974e-11, cumulative = -1.10932e-08
ExecutionTime = 0.07 s  ClockTime = 0 s

Time = 0.7

Courant Number mean: 0.0592914 max: 0.185888
smoothSolver:  Solving for Ux, Initial residual = 0.00368247, Final residual = 2.96097e-06, No Iterations 1
smoothSolver:  Solving for Uy, Initial residual = 0.00302588, Final residual = 2.60467e-06, No Iterations 1
DICPCG:  Solving for p, Initial residual = 0.0314243, Final residual = 0.00102165, No Iterations 3
DICPCG:  Solving for p, Initial residual = 0.00334447, Final residual = 0.000160667, No Iterations 17
DICPCG:  Solving for p, Initial residual = 0.000689913, Final residual = 3.38478e-05, No Iterations 41
time step continuity errors : sum local = 1.59282e-08, global = 1.18717e-09, cumulative = -9.90606e-09
DICPCG:  Solving for p, Initial residual = 0.000795088, Final residual = 3.93987e-05, No Iterations 6
DICPCG:  Solving for p, Initial residual = 0.000127455, Final residual = 5.51262e-06, No Iterations 52
DICPCG:  Solving for p, Initial residual = 5.76705e-05, Final residual = 9.52421e-07, No Iterations 13
time step continuity errors : sum local = 4.46251e-10, global = 3.27778e-11, cumulative = -9.87329e-09
ExecutionTime = 0.08 s  ClockTime = 0 s

Time = 0.75

Courant Number mean: 0.0592935 max: 0.186367
smoothSolver:  Solving for Ux, Initial residual = 0.0034386, Final residual = 2.77022e-06, No Iterations 1
smoothSolver:  Solving for Uy, Initial residual = 0.00284163, Final residual = 2.45146e-06, No Iterations 1
DICPCG:  Solving for p, Initial residual = 0.0308109, Final residual = 0.00104232, No Iterations 3
DICPCG:  Solving for p, Initial residual = 0.00335178, Final residual = 0.000142417, No Iterations 43
DICPCG:  Solving for p, Initial residual = 0.000911791, Final residual = 4.44272e-05, No Iterations 18
time step continuity errors : sum local = 1.98718e-08, global = 6.33609e-11, cumulative = -9.80993e-09
DICPCG:  Solving for p, Initial residual = 0.000700304, Final residual = 3.104e-05, No Iterations 6
DICPCG:  Solving for p, Initial residual = 0.000122187, Final residual = 5.92911e-06, No Iterations 39
DICPCG:  Solving for p, Initial residual = 3.56754e-05, Final residual = 9.93665e-07, No Iterations 22
time step continuity errors : sum local = 4.44649e-10, global = -1.88041e-11, cumulative = -9.82873e-09
ExecutionTime = 0.08 s  ClockTime = 0 s

Time = 0.8

Courant Number mean: 0.0592957 max: 0.18683
smoothSolver:  Solving for Ux, Initial residual = 0.00321615, Final residual = 2.57554e-06, No Iterations 1
smoothSolver:  Solving for Uy, Initial residual = 0.0026821, Final residual = 2.2765e-06, No Iterations 1
DICPCG:  Solving for p, Initial residual = 0.0288518, Final residual = 0.000983693, No Iterations 3
DICPCG:  Solving for p, Initial residual = 0.0032387, Final residual = 0.000160869, No Iterations 14
DICPCG:  Solving for p, Initial residual = 0.000602269, Final residual = 2.8507e-05, No Iterations 42
time step continuity errors : sum local = 1.23092e-08, global = 2.25561e-10, cumulative = -9.60317e-09
DICPCG:  Solving for p, Initial residual = 0.000735343, Final residual = 3.2915e-05, No Iterations 5
DICPCG:  Solving for p, Initial residual = 0.000114992, Final residual = 3.77655e-06, No Iterations 51
DICPCG:  Solving for p, Initial residual = 5.25544e-05, Final residual = 9.70389e-07, No Iterations 8
time step continuity errors : sum local = 4.17266e-10, global = 4.6397e-11, cumulative = -9.55677e-09
ExecutionTime = 0.09 s  ClockTime = 0 s

Time = 0.85

Courant Number mean: 0.0592976 max: 0.187271
smoothSolver:  Solving for Ux, Initial residual = 0.00302071, Final residual = 2.39069e-06, No Iterations 1
smoothSolver:  Solving for Uy, Initial residual = 0.00254672, Final residual = 2.1648e-06, No Iterations 1
DICPCG:  Solving for p, Initial residual = 0.0283784, Final residual = 0.000777825, No Iterations 3
DICPCG:  Solving for p, Initial residual = 0.00300522, Final residual = 0.000116951, No Iterations 44
DICPCG:  Solving for p, Initial residual = 0.000936689, Final residual = 4.08711e-05, No Iterations 19
time step continuity errors : sum local = 1.68626e-08, global = 1.17951e-09, cumulative = -8.37726e-09
DICPCG:  Solving for p, Initial residual = 0.000656242, Final residual = 2.84082e-05, No Iterations 7
DICPCG:  Solving for p, Initial residual = 0.000113283, Final residual = 5.61542e-06, No Iterations 34
DICPCG:  Solving for p, Initial residual = 3.12483e-05, Final residual = 9.67256e-07, No Iterations 44
time step continuity errors : sum local = 3.99102e-10, global = -1.42423e-12, cumulative = -8.37868e-09
ExecutionTime = 0.09 s  ClockTime = 1 s

Time = 0.9

Courant Number mean: 0.0592992 max: 0.187691
smoothSolver:  Solving for Ux, Initial residual = 0.00284849, Final residual = 2.27578e-06, No Iterations 1
smoothSolver:  Solving for Uy, Initial residual = 0.00241749, Final residual = 2.03797e-06, No Iterations 1
DICPCG:  Solving for p, Initial residual = 0.0234629, Final residual = 0.0007948, No Iterations 3
DICPCG:  Solving for p, Initial residual = 0.00258513, Final residual = 0.000100966, No Iterations 52
DICPCG:  Solving for p, Initial residual = 0.000920936, Final residual = 3.95762e-05, No Iterations 5
time step continuity errors : sum local = 1.57616e-08, global = -5.48671e-10, cumulative = -8.92735e-09
DICPCG:  Solving for p, Initial residual = 0.000507736, Final residual = 2.50957e-05, No Iterations 14
DICPCG:  Solving for p, Initial residual = 0.000104966, Final residual = 4.48799e-06, No Iterations 49
DICPCG:  Solving for p, Initial residual = 5.00015e-05, Final residual = 9.1916e-07, No Iterations 19
time step continuity errors : sum local = 3.66257e-10, global = 4.70808e-11, cumulative = -8.88027e-09
ExecutionTime = 0.1 s  ClockTime = 1 s

Time = 0.95

Courant Number mean: 0.0593007 max: 0.188094
smoothSolver:  Solving for Ux, Initial residual = 0.00269618, Final residual = 2.16006e-06, No Iterations 1
smoothSolver:  Solving for Uy, Initial residual = 0.00230274, Final residual = 1.93186e-06, No Iterations 1
DICPCG:  Solving for p, Initial residual = 0.0222201, Final residual = 0.000744829, No Iterations 3
DICPCG:  Solving for p, Initial residual = 0.00247396, Final residual = 0.000116064, No Iterations 54
DICPCG:  Solving for p, Initial residual = 0.000932745, Final residual = 4.6194e-05, No Iterations 5
time step continuity errors : sum local = 1.77898e-08, global = -1.14527e-09, cumulative = -1.00255e-08
DICPCG:  Solving for p, Initial residual = 0.000463781, Final residual = 2.21368e-05, No Iterations 15
DICPCG:  Solving for p, Initial residual = 9.3712e-05, Final residual = 4.52456e-06, No Iterations 39
DICPCG:  Solving for p, Initial residual = 4.70377e-05, Final residual = 8.9852e-07, No Iterations 19
time step continuity errors : sum local = 3.46193e-10, global = 2.8171e-11, cumulative = -9.99738e-09
ExecutionTime = 0.1 s  ClockTime = 1 s

Time = 1

Courant Number mean: 0.0593021 max: 0.188471
smoothSolver:  Solving for Ux, Initial residual = 0.00255442, Final residual = 2.04443e-06, No Iterations 1
smoothSolver:  Solving for Uy, Initial residual = 0.00219712, Final residual = 1.83651e-06, No Iterations 1
DICPCG:  Solving for p, Initial residual = 0.0223761, Final residual = 0.0007913, No Iterations 3
DICPCG:  Solving for p, Initial residual = 0.00253994, Final residual = 0.000103193, No Iterations 54
DICPCG:  Solving for p, Initial residual = 0.000907576, Final residual = 4.17043e-05, No Iterations 4
time step continuity errors : sum local = 1.55311e-08, global = -2.20321e-10, cumulative = -1.02177e-08
DICPCG:  Solving for p, Initial residual = 0.000500334, Final residual = 2.30494e-05, No Iterations 12
DICPCG:  Solving for p, Initial residual = 9.8476e-05, Final residual = 3.4424e-06, No Iterations 48
DICPCG:  Solving for p, Initial residual = 4.8901e-05, Final residual = 8.44665e-07, No Iterations 7
time step continuity errors : sum local = 3.1473e-10, global = 3.92268e-11, cumulative = -1.01785e-08
ExecutionTime = 0.11 s  ClockTime = 1 s

Time = 1.05

Courant Number mean: 0.0593034 max: 0.188806
smoothSolver:  Solving for Ux, Initial residual = 0.00242381, Final residual = 1.94676e-06, No Iterations 1
smoothSolver:  Solving for Uy, Initial residual = 0.00210306, Final residual = 1.75649e-06, No Iterations 1
DICPCG:  Solving for p, Initial residual = 0.0211089, Final residual = 0.000781487, No Iterations 3
DICPCG:  Solving for p, Initial residual = 0.00234213, Final residual = 8.74319e-05, No Iterations 54
DICPCG:  Solving for p, Initial residual = 0.000929174, Final residual = 4.45439e-05, No Iterations 6
time step continuity errors : sum local = 1.60833e-08, global = -5.98149e-10, cumulative = -1.07766e-08
DICPCG:  Solving for p, Initial residual = 0.00043162, Final residual = 2.08392e-05, No Iterations 13
DICPCG:  Solving for p, Initial residual = 8.32968e-05, Final residual = 3.48976e-06, No Iterations 50
DICPCG:  Solving for p, Initial residual = 4.77753e-05, Final residual = 8.85485e-07, No Iterations 7
time step continuity errors : sum local = 3.19869e-10, global = 5.62187e-11, cumulative = -1.07204e-08
ExecutionTime = 0.11 s  ClockTime = 1 s

Time = 1.1

Courant Number mean: 0.0593046 max: 0.189122
smoothSolver:  Solving for Ux, Initial residual = 0.00230669, Final residual = 1.85155e-06, No Iterations 1
smoothSolver:  Solving for Uy, Initial residual = 0.00201563, Final residual = 1.66592e-06, No Iterations 1
DICPCG:  Solving for p, Initial residual = 0.0196484, Final residual = 0.000742723, No Iterations 3
DICPCG:  Solving for p, Initial residual = 0.00219586, Final residual = 9.94419e-05, No Iterations 52
DICPCG:  Solving for p, Initial residual = 0.000837444, Final residual = 3.43463e-05, No Iterations 5
time step continuity errors : sum local = 1.20602e-08, global = -3.92785e-10, cumulative = -1.11132e-08
DICPCG:  Solving for p, Initial residual = 0.000427922, Final residual = 2.08144e-05, No Iterations 13
DICPCG:  Solving for p, Initial residual = 8.29416e-05, Final residual = 3.86313e-06, No Iterations 49
DICPCG:  Solving for p, Initial residual = 4.05322e-05, Final residual = 9.8726e-07, No Iterations 16
time step continuity errors : sum local = 3.46791e-10, global = 3.40226e-11, cumulative = -1.10792e-08
ExecutionTime = 0.12 s  ClockTime = 1 s

Time = 1.15

Courant Number mean: 0.0593057 max: 0.189418
smoothSolver:  Solving for Ux, Initial residual = 0.00220435, Final residual = 1.76488e-06, No Iterations 1
smoothSolver:  Solving for Uy, Initial residual = 0.00193069, Final residual = 1.59503e-06, No Iterations 1
DICPCG:  Solving for p, Initial residual = 0.0181739, Final residual = 0.00065162, No Iterations 3
DICPCG:  Solving for p, Initial residual = 0.00203986, Final residual = 9.64483e-05, No Iterations 54
DICPCG:  Solving for p, Initial residual = 0.000848905, Final residual = 4.10472e-05, No Iterations 6
time step continuity errors : sum local = 1.40314e-08, global = -6.74739e-10, cumulative = -1.17539e-08
DICPCG:  Solving for p, Initial residual = 0.000375337, Final residual = 1.79814e-05, No Iterations 13
DICPCG:  Solving for p, Initial residual = 7.07034e-05, Final residual = 3.22721e-06, No Iterations 47
DICPCG:  Solving for p, Initial residual = 4.22455e-05, Final residual = 7.83332e-07, No Iterations 15
time step continuity errors : sum local = 2.67861e-10, global = 4.08451e-11, cumulative = -1.17131e-08
ExecutionTime = 0.13 s  ClockTime = 1 s

Time = 1.2

Courant Number mean: 0.0593067 max: 0.189695
smoothSolver:  Solving for Ux, Initial residual = 0.00211131, Final residual = 1.69706e-06, No Iterations 1
smoothSolver:  Solving for Uy, Initial residual = 0.00185608, Final residual = 1.53833e-06, No Iterations 1
DICPCG:  Solving for p, Initial residual = 0.0174174, Final residual = 0.000638671, No Iterations 3
DICPCG:  Solving for p, Initial residual = 0.00204878, Final residual = 9.65027e-05, No Iterations 54
DICPCG:  Solving for p, Initial residual = 0.000844692, Final residual = 3.81216e-05, No Iterations 6
time step continuity errors : sum local = 1.27051e-08, global = -6.10105e-10, cumulative = -1.23232e-08
DICPCG:  Solving for p, Initial residual = 0.000369928, Final residual = 1.83645e-05, No Iterations 12
DICPCG:  Solving for p, Initial residual = 7.2977e-05, Final residual = 3.57282e-06, No Iterations 49
DICPCG:  Solving for p, Initial residual = 3.91069e-05, Final residual = 9.47984e-07, No Iterations 11
time step continuity errors : sum local = 3.16041e-10, global = 3.63823e-11, cumulative = -1.22868e-08
ExecutionTime = 0.13 s  ClockTime = 1 s

Time = 1.25

Courant Number mean: 0.0593075 max: 0.189944
smoothSolver:  Solving for Ux, Initial residual = 0.00202303, Final residual = 1.63329e-06, No Iterations 1
smoothSolver:  Solving for Uy, Initial residual = 0.00179336, Final residual = 1.47973e-06, No Iterations 1
DICPCG:  Solving for p, Initial residual = 0.0163678, Final residual = 0.000557657, No Iterations 3
DICPCG:  Solving for p, Initial residual = 0.00183746, Final residual = 6.67054e-05, No Iterations 54
DICPCG:  Solving for p, Initial residual = 0.000809801, Final residual = 3.26052e-05, No Iterations 3
time step continuity errors : sum local = 1.06189e-08, global = -3.2274e-10, cumulative = -1.26095e-08
DICPCG:  Solving for p, Initial residual = 0.000344537, Final residual = 1.54302e-05, No Iterations 12
DICPCG:  Solving for p, Initial residual = 7.0462e-05, Final residual = 3.01598e-06, No Iterations 51
DICPCG:  Solving for p, Initial residual = 4.08305e-05, Final residual = 8.8045e-07, No Iterations 10
time step continuity errors : sum local = 2.86848e-10, global = 6.17901e-11, cumulative = -1.25477e-08
ExecutionTime = 0.14 s  ClockTime = 1 s

Time = 1.3

Courant Number mean: 0.0593082 max: 0.190162
smoothSolver:  Solving for Ux, Initial residual = 0.00194593, Final residual = 1.55742e-06, No Iterations 1
smoothSolver:  Solving for Uy, Initial residual = 0.00173433, Final residual = 1.42784e-06, No Iterations 1
DICPCG:  Solving for p, Initial residual = 0.0172166, Final residual = 0.000551581, No Iterations 3
DICPCG:  Solving for p, Initial residual = 0.0018422, Final residual = 7.64869e-05, No Iterations 53
DICPCG:  Solving for p, Initial residual = 0.000775456, Final residual = 3.3677e-05, No Iterations 5
time step continuity errors : sum local = 1.07127e-08, global = -7.12523e-10, cumulative = -1.32603e-08
DICPCG:  Solving for p, Initial residual = 0.000372118, Final residual = 1.77904e-05, No Iterations 15
DICPCG:  Solving for p, Initial residual = 7.50796e-05, Final residual = 3.03227e-06, No Iterations 41
DICPCG:  Solving for p, Initial residual = 3.86394e-05, Final residual = 9.58699e-07, No Iterations 13
time step continuity errors : sum local = 3.05059e-10, global = 3.07393e-11, cumulative = -1.32295e-08
ExecutionTime = 0.14 s  ClockTime = 1 s

Time = 1.35

Courant Number mean: 0.0593088 max: 0.190341
smoothSolver:  Solving for Ux, Initial residual = 0.0018731, Final residual = 1.48594e-06, No Iterations 1
smoothSolver:  Solving for Uy, Initial residual = 0.00167701, Final residual = 1.38444e-06, No Iterations 1
DICPCG:  Solving for p, Initial residual = 0.0158603, Final residual = 0.000652687, No Iterations 3
DICPCG:  Solving for p, Initial residual = 0.00179936, Final residual = 7.63451e-05, No Iterations 53
DICPCG:  Solving for p, Initial residual = 0.000787151, Final residual = 3.71906e-05, No Iterations 6
time step continuity errors : sum local = 1.15843e-08, global = -2.23339e-10, cumulative = -1.34529e-08
DICPCG:  Solving for p, Initial residual = 0.000358486, Final residual = 1.67727e-05, No Iterations 15
DICPCG:  Solving for p, Initial residual = 7.02546e-05, Final residual = 2.96018e-06, No Iterations 48
DICPCG:  Solving for p, Initial residual = 3.85664e-05, Final residual = 9.92875e-07, No Iterations 14
time step continuity errors : sum local = 3.09347e-10, global = 1.94525e-11, cumulative = -1.34334e-08
ExecutionTime = 0.15 s  ClockTime = 1 s

Time = 1.4

Courant Number mean: 0.0593093 max: 0.190493
smoothSolver:  Solving for Ux, Initial residual = 0.0018068, Final residual = 1.427e-06, No Iterations 1
smoothSolver:  Solving for Uy, Initial residual = 0.00162642, Final residual = 1.34131e-06, No Iterations 1
DICPCG:  Solving for p, Initial residual = 0.0153239, Final residual = 0.000526536, No Iterations 3
DICPCG:  Solving for p, Initial residual = 0.00167672, Final residual = 6.89778e-05, No Iterations 54
DICPCG:  Solving for p, Initial residual = 0.000680992, Final residual = 2.93796e-05, No Iterations 5
time step continuity errors : sum local = 8.96707e-09, global = -5.66709e-10, cumulative = -1.40001e-08
DICPCG:  Solving for p, Initial residual = 0.000335143, Final residual = 1.47253e-05, No Iterations 13
DICPCG:  Solving for p, Initial residual = 6.16038e-05, Final residual = 2.47441e-06, No Iterations 50
DICPCG:  Solving for p, Initial residual = 3.20209e-05, Final residual = 7.2743e-07, No Iterations 6
time step continuity errors : sum local = 2.22085e-10, global = 2.26536e-11, cumulative = -1.39775e-08
ExecutionTime = 0.16 s  ClockTime = 1 s

Time = 1.45

Courant Number mean: 0.0593098 max: 0.190629
smoothSolver:  Solving for Ux, Initial residual = 0.00174804, Final residual = 1.37607e-06, No Iterations 1
smoothSolver:  Solving for Uy, Initial residual = 0.00158117, Final residual = 1.31711e-06, No Iterations 1
DICPCG:  Solving for p, Initial residual = 0.0139816, Final residual = 0.000504752, No Iterations 3
DICPCG:  Solving for p, Initial residual = 0.0015194, Final residual = 5.77945e-05, No Iterations 54
DICPCG:  Solving for p, Initial residual = 0.000692954, Final residual = 2.56133e-05, No Iterations 3
time step continuity errors : sum local = 7.66265e-09, global = -2.79035e-10, cumulative = -1.42565e-08
DICPCG:  Solving for p, Initial residual = 0.000304939, Final residual = 1.40024e-05, No Iterations 14
DICPCG:  Solving for p, Initial residual = 5.78215e-05, Final residual = 2.08745e-06, No Iterations 47
DICPCG:  Solving for p, Initial residual = 3.62869e-05, Final residual = 9.43823e-07, No Iterations 14
time step continuity errors : sum local = 2.82445e-10, global = 3.70362e-11, cumulative = -1.42195e-08
ExecutionTime = 0.16 s  ClockTime = 1 s

Time = 1.5

Courant Number mean: 0.0593103 max: 0.190753
smoothSolver:  Solving for Ux, Initial residual = 0.00169514, Final residual = 1.32416e-06, No Iterations 1
smoothSolver:  Solving for Uy, Initial residual = 0.00153725, Final residual = 1.26675e-06, No Iterations 1
DICPCG:  Solving for p, Initial residual = 0.0155235, Final residual = 0.00056625, No Iterations 3
DICPCG:  Solving for p, Initial residual = 0.00177958, Final residual = 8.25357e-05, No Iterations 51
DICPCG:  Solving for p, Initial residual = 0.000721131, Final residual = 3.08588e-05, No Iterations 7
time step continuity errors : sum local = 9.03173e-09, global = -1.68768e-10, cumulative = -1.43882e-08
DICPCG:  Solving for p, Initial residual = 0.000345107, Final residual = 1.54233e-05, No Iterations 13
DICPCG:  Solving for p, Initial residual = 6.61497e-05, Final residual = 3.03521e-06, No Iterations 48
DICPCG:  Solving for p, Initial residual = 3.70986e-05, Final residual = 8.49963e-07, No Iterations 15
time step continuity errors : sum local = 2.48839e-10, global = 3.43144e-11, cumulative = -1.43539e-08
ExecutionTime = 0.17 s  ClockTime = 1 s

Time = 1.55

Courant Number mean: 0.0593107 max: 0.190867
smoothSolver:  Solving for Ux, Initial residual = 0.00163943, Final residual = 1.25002e-06, No Iterations 1
smoothSolver:  Solving for Uy, Initial residual = 0.00149675, Final residual = 1.21703e-06, No Iterations 1
DICPCG:  Solving for p, Initial residual = 0.0155491, Final residual = 0.000531958, No Iterations 3
DICPCG:  Solving for p, Initial residual = 0.00166871, Final residual = 6.45508e-05, No Iterations 56
DICPCG:  Solving for p, Initial residual = 0.000581749, Final residual = 2.42729e-05, No Iterations 5
time step continuity errors : sum local = 6.98696e-09, global = -3.80531e-10, cumulative = -1.47344e-08
DICPCG:  Solving for p, Initial residual = 0.000355688, Final residual = 1.46225e-05, No Iterations 13
DICPCG:  Solving for p, Initial residual = 6.56802e-05, Final residual = 3.22088e-06, No Iterations 47
DICPCG:  Solving for p, Initial residual = 2.91833e-05, Final residual = 9.35884e-07, No Iterations 13
time step continuity errors : sum local = 2.69472e-10, global = 2.43897e-11, cumulative = -1.47101e-08
ExecutionTime = 0.17 s  ClockTime = 1 s

Time = 1.6

Courant Number mean: 0.059311 max: 0.190966
smoothSolver:  Solving for Ux, Initial residual = 0.00158949, Final residual = 1.2066e-06, No Iterations 1
smoothSolver:  Solving for Uy, Initial residual = 0.00145791, Final residual = 1.18372e-06, No Iterations 1
DICPCG:  Solving for p, Initial residual = 0.0127913, Final residual = 0.000401401, No Iterations 3
DICPCG:  Solving for p, Initial residual = 0.00130882, Final residual = 5.06391e-05, No Iterations 49
DICPCG:  Solving for p, Initial residual = 0.000724135, Final residual = 3.50247e-05, No Iterations 6
time step continuity errors : sum local = 9.89647e-09, global = -2.03287e-10, cumulative = -1.49133e-08
DICPCG:  Solving for p, Initial residual = 0.000290321, Final residual = 1.34812e-05, No Iterations 42
DICPCG:  Solving for p, Initial residual = 6.67212e-05, Final residual = 3.11172e-06, No Iterations 22
DICPCG:  Solving for p, Initial residual = 1.53986e-05, Final residual = 7.94334e-07, No Iterations 35
time step continuity errors : sum local = 2.245e-10, global = -6.27637e-12, cumulative = -1.49196e-08
ExecutionTime = 0.18 s  ClockTime = 1 s

Time = 1.65

Courant Number mean: 0.0593112 max: 0.191053
smoothSolver:  Solving for Ux, Initial residual = 0.00154418, Final residual = 1.16481e-06, No Iterations 1
smoothSolver:  Solving for Uy, Initial residual = 0.00142378, Final residual = 1.14072e-06, No Iterations 1
DICPCG:  Solving for p, Initial residual = 0.0125897, Final residual = 0.000450545, No Iterations 3
DICPCG:  Solving for p, Initial residual = 0.00138238, Final residual = 6.88626e-05, No Iterations 53
DICPCG:  Solving for p, Initial residual = 0.000657645, Final residual = 2.94871e-05, No Iterations 7
time step continuity errors : sum local = 8.18475e-09, global = -1.97909e-10, cumulative = -1.51175e-08
DICPCG:  Solving for p, Initial residual = 0.000282617, Final residual = 1.24806e-05, No Iterations 15
DICPCG:  Solving for p, Initial residual = 5.36392e-05, Final residual = 2.5714e-06, No Iterations 45
DICPCG:  Solving for p, Initial residual = 3.2539e-05, Final residual = 9.5145e-07, No Iterations 9
time step continuity errors : sum local = 2.64153e-10, global = 2.06148e-11, cumulative = -1.50969e-08
ExecutionTime = 0.18 s  ClockTime = 1 s

Time = 1.7

Courant Number mean: 0.0593114 max: 0.191129
smoothSolver:  Solving for Ux, Initial residual = 0.00150386, Final residual = 1.13237e-06, No Iterations 1
smoothSolver:  Solving for Uy, Initial residual = 0.00139116, Final residual = 1.1044e-06, No Iterations 1
DICPCG:  Solving for p, Initial residual = 0.0125457, Final residual = 0.000457057, No Iterations 3
DICPCG:  Solving for p, Initial residual = 0.00134872, Final residual = 6.48136e-05, No Iterations 49
DICPCG:  Solving for p, Initial residual = 0.000660887, Final residual = 2.87272e-05, No Iterations 8
time step continuity errors : sum local = 7.83618e-09, global = -4.51549e-10, cumulative = -1.55485e-08
DICPCG:  Solving for p, Initial residual = 0.000279297, Final residual = 1.38138e-05, No Iterations 14
DICPCG:  Solving for p, Initial residual = 5.46072e-05, Final residual = 2.33377e-06, No Iterations 44
DICPCG:  Solving for p, Initial residual = 3.21401e-05, Final residual = 9.02915e-07, No Iterations 6
time step continuity errors : sum local = 2.46348e-10, global = 2.44364e-11, cumulative = -1.5524e-08
ExecutionTime = 0.19 s  ClockTime = 1 s

Time = 1.75

Courant Number mean: 0.0593115 max: 0.191195
smoothSolver:  Solving for Ux, Initial residual = 0.0014656, Final residual = 1.10495e-06, No Iterations 1
smoothSolver:  Solving for Uy, Initial residual = 0.00135895, Final residual = 1.07596e-06, No Iterations 1
DICPCG:  Solving for p, Initial residual = 0.0122024, Final residual = 0.000461361, No Iterations 3
DICPCG:  Solving for p, Initial residual = 0.00131674, Final residual = 6.04213e-05, No Iterations 53
DICPCG:  Solving for p, Initial residual = 0.000662966, Final residual = 2.98986e-05, No Iterations 5
time step continuity errors : sum local = 8.02244e-09, global = -1.21095e-10, cumulative = -1.56451e-08
DICPCG:  Solving for p, Initial residual = 0.000262817, Final residual = 1.187e-05, No Iterations 40
DICPCG:  Solving for p, Initial residual = 6.14635e-05, Final residual = 2.47286e-06, No Iterations 21
DICPCG:  Solving for p, Initial residual = 1.51834e-05, Final residual = 9.66588e-07, No Iterations 38
time step continuity errors : sum local = 2.59417e-10, global = -2.70918e-11, cumulative = -1.56722e-08
ExecutionTime = 0.19 s  ClockTime = 1 s

Time = 1.8

Courant Number mean: 0.0593115 max: 0.191254
smoothSolver:  Solving for Ux, Initial residual = 0.00143179, Final residual = 1.07033e-06, No Iterations 1
smoothSolver:  Solving for Uy, Initial residual = 0.00132797, Final residual = 1.05273e-06, No Iterations 1
DICPCG:  Solving for p, Initial residual = 0.0117561, Final residual = 0.000444169, No Iterations 3
DICPCG:  Solving for p, Initial residual = 0.00129684, Final residual = 6.22288e-05, No Iterations 53
DICPCG:  Solving for p, Initial residual = 0.000625522, Final residual = 2.99715e-05, No Iterations 5
time step continuity errors : sum local = 7.92975e-09, global = -9.42627e-11, cumulative = -1.57665e-08
DICPCG:  Solving for p, Initial residual = 0.000265748, Final residual = 1.2828e-05, No Iterations 17
DICPCG:  Solving for p, Initial residual = 5.05178e-05, Final residual = 1.94658e-06, No Iterations 52
DICPCG:  Solving for p, Initial residual = 3.06386e-05, Final residual = 8.25656e-07, No Iterations 6
time step continuity errors : sum local = 2.18506e-10, global = 1.19207e-11, cumulative = -1.57545e-08
ExecutionTime = 0.19 s  ClockTime = 1 s

Time = 1.85

Courant Number mean: 0.0593115 max: 0.191307
smoothSolver:  Solving for Ux, Initial residual = 0.00140025, Final residual = 1.04207e-06, No Iterations 1
smoothSolver:  Solving for Uy, Initial residual = 0.00129848, Final residual = 1.03907e-06, No Iterations 1
DICPCG:  Solving for p, Initial residual = 0.0114374, Final residual = 0.000451889, No Iterations 3
DICPCG:  Solving for p, Initial residual = 0.00123942, Final residual = 5.39556e-05, No Iterations 53
DICPCG:  Solving for p, Initial residual = 0.000628975, Final residual = 3.13849e-05, No Iterations 3
time step continuity errors : sum local = 8.163e-09, global = -3.07548e-10, cumulative = -1.60621e-08
DICPCG:  Solving for p, Initial residual = 0.000266615, Final residual = 1.28987e-05, No Iterations 14
DICPCG:  Solving for p, Initial residual = 4.8539e-05, Final residual = 2.14e-06, No Iterations 43
DICPCG:  Solving for p, Initial residual = 3.35322e-05, Final residual = 9.75292e-07, No Iterations 11
time step continuity errors : sum local = 2.53735e-10, global = 3.29678e-11, cumulative = -1.60291e-08
ExecutionTime = 0.2 s  ClockTime = 1 s

Time = 1.9

Courant Number mean: 0.0593113 max: 0.191356
smoothSolver:  Solving for Ux, Initial residual = 0.00137065, Final residual = 1.00966e-06, No Iterations 1
smoothSolver:  Solving for Uy, Initial residual = 0.00126999, Final residual = 1.01981e-06, No Iterations 1
DICPCG:  Solving for p, Initial residual = 0.0105409, Final residual = 0.000372053, No Iterations 3
DICPCG:  Solving for p, Initial residual = 0.00112562, Final residual = 5.01669e-05, No Iterations 53
DICPCG:  Solving for p, Initial residual = 0.000582705, Final residual = 2.57523e-05, No Iterations 5
time step continuity errors : sum local = 6.59692e-09, global = -9.89073e-11, cumulative = -1.6128e-08
DICPCG:  Solving for p, Initial residual = 0.000235212, Final residual = 1.07892e-05, No Iterations 40
DICPCG:  Solving for p, Initial residual = 5.01307e-05, Final residual = 2.1882e-06, No Iterations 20
DICPCG:  Solving for p, Initial residual = 1.24919e-05, Final residual = 7.19744e-07, No Iterations 34
time step continuity errors : sum local = 1.84419e-10, global = -5.06175e-12, cumulative = -1.61331e-08
ExecutionTime = 0.2 s  ClockTime = 1 s

Time = 1.95

Courant Number mean: 0.0593111 max: 0.191399
smoothSolver:  Solving for Ux, Initial residual = 0.00134335, Final residual = 9.82854e-07, No Iterations 1
smoothSolver:  Solving for Uy, Initial residual = 0.00124386, Final residual = 9.94022e-07, No Iterations 1
DICPCG:  Solving for p, Initial residual = 0.0105584, Final residual = 0.000463975, No Iterations 4
DICPCG:  Solving for p, Initial residual = 0.0012795, Final residual = 5.15897e-05, No Iterations 52
DICPCG:  Solving for p, Initial residual = 0.000534288, Final residual = 2.52104e-05, No Iterations 8
time step continuity errors : sum local = 6.36861e-09, global = -3.08487e-11, cumulative = -1.61639e-08
DICPCG:  Solving for p, Initial residual = 0.00025131, Final residual = 1.2136e-05, No Iterations 12
DICPCG:  Solving for p, Initial residual = 4.55525e-05, Final residual = 2.25446e-06, No Iterations 51
DICPCG:  Solving for p, Initial residual = 2.31068e-05, Final residual = 8.6084e-07, No Iterations 10
time step continuity errors : sum local = 2.17501e-10, global = 1.74588e-11, cumulative = -1.61465e-08
ExecutionTime = 0.21 s  ClockTime = 1 s

Time = 2

Courant Number mean: 0.059311 max: 0.191438
smoothSolver:  Solving for Ux, Initial residual = 0.00131721, Final residual = 9.63069e-07, No Iterations 1
smoothSolver:  Solving for Uy, Initial residual = 0.00121973, Final residual = 9.7644e-07, No Iterations 1
DICPCG:  Solving for p, Initial residual = 0.00973773, Final residual = 0.000399502, No Iterations 3
DICPCG:  Solving for p, Initial residual = 0.00109416, Final residual = 5.29316e-05, No Iterations 54
DICPCG:  Solving for p, Initial residual = 0.000669988, Final residual = 3.22318e-05, No Iterations 5
time step continuity errors : sum local = 8.02478e-09, global = -3.59086e-10, cumulative = -1.65056e-08
DICPCG:  Solving for p, Initial residual = 0.000232125, Final residual = 1.14699e-05, No Iterations 46
DICPCG:  Solving for p, Initial residual = 5.67607e-05, Final residual = 2.7865e-06, No Iterations 17
DICPCG:  Solving for p, Initial residual = 1.18078e-05, Final residual = 9.66472e-07, No Iterations 22
time step continuity errors : sum local = 2.40669e-10, global = -3.61591e-11, cumulative = -1.65417e-08
ExecutionTime = 0.22 s  ClockTime = 1 s

Time = 2.05

Courant Number mean: 0.0593107 max: 0.191473
smoothSolver:  Solving for Ux, Initial residual = 0.00129094, Final residual = 9.40456e-07, No Iterations 1
smoothSolver:  Solving for Uy, Initial residual = 0.00119648, Final residual = 9.57878e-07, No Iterations 1
DICPCG:  Solving for p, Initial residual = 0.00922046, Final residual = 0.000362788, No Iterations 3
DICPCG:  Solving for p, Initial residual = 0.00106767, Final residual = 4.9271e-05, No Iterations 54
DICPCG:  Solving for p, Initial residual = 0.000579979, Final residual = 2.53076e-05, No Iterations 6
time step continuity errors : sum local = 6.2174e-09, global = -4.82848e-10, cumulative = -1.70246e-08
DICPCG:  Solving for p, Initial residual = 0.000210631, Final residual = 8.47008e-06, No Iterations 46
DICPCG:  Solving for p, Initial residual = 4.78158e-05, Final residual = 1.90205e-06, No Iterations 15
DICPCG:  Solving for p, Initial residual = 8.27714e-06, Final residual = 9.87001e-07, No Iterations 10
time step continuity errors : sum local = 2.42534e-10, global = -3.15628e-11, cumulative = -1.70561e-08
ExecutionTime = 0.22 s  ClockTime = 1 s

Time = 2.1

Courant Number mean: 0.0593105 max: 0.1915
smoothSolver:  Solving for Ux, Initial residual = 0.00126536, Final residual = 9.16411e-07, No Iterations 1
smoothSolver:  Solving for Uy, Initial residual = 0.0011746, Final residual = 9.16881e-07, No Iterations 1
DICPCG:  Solving for p, Initial residual = 0.00982692, Final residual = 0.000418763, No Iterations 3
DICPCG:  Solving for p, Initial residual = 0.00112722, Final residual = 4.10237e-05, No Iterations 52
DICPCG:  Solving for p, Initial residual = 0.000569819, Final residual = 2.63386e-05, No Iterations 5
time step continuity errors : sum local = 6.378e-09, global = -1.36069e-10, cumulative = -1.71922e-08
DICPCG:  Solving for p, Initial residual = 0.000217921, Final residual = 1.08782e-05, No Iterations 14
DICPCG:  Solving for p, Initial residual = 4.00888e-05, Final residual = 1.91976e-06, No Iterations 45
DICPCG:  Solving for p, Initial residual = 2.7882e-05, Final residual = 9.39521e-07, No Iterations 12
time step continuity errors : sum local = 2.27555e-10, global = 1.59802e-11, cumulative = -1.71762e-08
ExecutionTime = 0.23 s  ClockTime = 1 s

Time = 2.15

Courant Number mean: 0.0593102 max: 0.191518
smoothSolver:  Solving for Ux, Initial residual = 0.00123936, Final residual = 8.90469e-07, No Iterations 1
smoothSolver:  Solving for Uy, Initial residual = 0.00115364, Final residual = 8.94151e-07, No Iterations 1
DICPCG:  Solving for p, Initial residual = 0.00959595, Final residual = 0.000387149, No Iterations 3
DICPCG:  Solving for p, Initial residual = 0.00106403, Final residual = 4.42751e-05, No Iterations 53
DICPCG:  Solving for p, Initial residual = 0.000538877, Final residual = 2.23147e-05, No Iterations 6
time step continuity errors : sum local = 5.32487e-09, global = -4.07431e-10, cumulative = -1.75837e-08
DICPCG:  Solving for p, Initial residual = 0.000207485, Final residual = 1.02514e-05, No Iterations 14
DICPCG:  Solving for p, Initial residual = 3.63205e-05, Final residual = 1.41231e-06, No Iterations 46
DICPCG:  Solving for p, Initial residual = 2.56377e-05, Final residual = 8.01122e-07, No Iterations 5
time step continuity errors : sum local = 1.91202e-10, global = 1.08302e-11, cumulative = -1.75728e-08
ExecutionTime = 0.23 s  ClockTime = 1 s

Time = 2.2

Courant Number mean: 0.05931 max: 0.191528
smoothSolver:  Solving for Ux, Initial residual = 0.00121689, Final residual = 8.68706e-07, No Iterations 1
smoothSolver:  Solving for Uy, Initial residual = 0.00113403, Final residual = 8.79467e-07, No Iterations 1
DICPCG:  Solving for p, Initial residual = 0.00896266, Final residual = 0.000324771, No Iterations 3
DICPCG:  Solving for p, Initial residual = 0.000954431, Final residual = 4.08213e-05, No Iterations 54
DICPCG:  Solving for p, Initial residual = 0.000553135, Final residual = 2.36295e-05, No Iterations 3
time step continuity errors : sum local = 5.55913e-09, global = -4.65368e-10, cumulative = -1.80382e-08
DICPCG:  Solving for p, Initial residual = 0.000197726, Final residual = 9.87868e-06, No Iterations 15
DICPCG:  Solving for p, Initial residual = 3.69771e-05, Final residual = 1.37689e-06, No Iterations 46
DICPCG:  Solving for p, Initial residual = 2.74709e-05, Final residual = 8.46451e-07, No Iterations 5
time step continuity errors : sum local = 1.99177e-10, global = 1.58303e-11, cumulative = -1.80224e-08
ExecutionTime = 0.24 s  ClockTime = 1 s

Time = 2.25

Courant Number mean: 0.0593097 max: 0.191531
smoothSolver:  Solving for Ux, Initial residual = 0.00119463, Final residual = 8.49672e-07, No Iterations 1
smoothSolver:  Solving for Uy, Initial residual = 0.00111435, Final residual = 8.62897e-07, No Iterations 1
DICPCG:  Solving for p, Initial residual = 0.00878858, Final residual = 0.000330292, No Iterations 3
DICPCG:  Solving for p, Initial residual = 0.000951829, Final residual = 4.12492e-05, No Iterations 54
DICPCG:  Solving for p, Initial residual = 0.000507977, Final residual = 2.32679e-05, No Iterations 3
time step continuity errors : sum local = 5.40637e-09, global = -5.5025e-10, cumulative = -1.85726e-08
DICPCG:  Solving for p, Initial residual = 0.000194501, Final residual = 7.18272e-06, No Iterations 46
DICPCG:  Solving for p, Initial residual = 4.45939e-05, Final residual = 1.88128e-06, No Iterations 15
DICPCG:  Solving for p, Initial residual = 7.49611e-06, Final residual = 9.15043e-07, No Iterations 11
time step continuity errors : sum local = 2.12653e-10, global = -1.77064e-11, cumulative = -1.85903e-08
ExecutionTime = 0.24 s  ClockTime = 1 s

Time = 2.3

Courant Number mean: 0.0593094 max: 0.191527
smoothSolver:  Solving for Ux, Initial residual = 0.00117314, Final residual = 8.24791e-07, No Iterations 1
smoothSolver:  Solving for Uy, Initial residual = 0.00109552, Final residual = 8.46523e-07, No Iterations 1
DICPCG:  Solving for p, Initial residual = 0.00848795, Final residual = 0.000337314, No Iterations 3
DICPCG:  Solving for p, Initial residual = 0.000904038, Final residual = 4.27162e-05, No Iterations 54
DICPCG:  Solving for p, Initial residual = 0.000476319, Final residual = 2.20982e-05, No Iterations 3
time step continuity errors : sum local = 5.07636e-09, global = -1.13425e-10, cumulative = -1.87038e-08
DICPCG:  Solving for p, Initial residual = 0.000186654, Final residual = 7.27169e-06, No Iterations 14
DICPCG:  Solving for p, Initial residual = 3.18134e-05, Final residual = 1.4835e-06, No Iterations 45
DICPCG:  Solving for p, Initial residual = 2.46561e-05, Final residual = 9.04043e-07, No Iterations 6
time step continuity errors : sum local = 2.07716e-10, global = 1.58987e-11, cumulative = -1.86879e-08
ExecutionTime = 0.24 s  ClockTime = 1 s

Time = 2.35

Courant Number mean: 0.0593092 max: 0.191519
smoothSolver:  Solving for Ux, Initial residual = 0.00115285, Final residual = 8.0676e-07, No Iterations 1
smoothSolver:  Solving for Uy, Initial residual = 0.0010775, Final residual = 8.31549e-07, No Iterations 1
DICPCG:  Solving for p, Initial residual = 0.00809202, Final residual = 0.000348566, No Iterations 3
DICPCG:  Solving for p, Initial residual = 0.000870535, Final residual = 3.58992e-05, No Iterations 54
DICPCG:  Solving for p, Initial residual = 0.000468934, Final residual = 1.93442e-05, No Iterations 3
time step continuity errors : sum local = 4.3963e-09, global = -1.87675e-10, cumulative = -1.88755e-08
DICPCG:  Solving for p, Initial residual = 0.000175709, Final residual = 7.64617e-06, No Iterations 14
DICPCG:  Solving for p, Initial residual = 3.09789e-05, Final residual = 1.47526e-06, No Iterations 41
DICPCG:  Solving for p, Initial residual = 2.41562e-05, Final residual = 9.24657e-07, No Iterations 12
time step continuity errors : sum local = 2.10182e-10, global = 1.58254e-11, cumulative = -1.88597e-08
ExecutionTime = 0.25 s  ClockTime = 1 s

Time = 2.4

Courant Number mean: 0.059309 max: 0.191505
smoothSolver:  Solving for Ux, Initial residual = 0.00113258, Final residual = 7.89592e-07, No Iterations 1
smoothSolver:  Solving for Uy, Initial residual = 0.00106034, Final residual = 8.18802e-07, No Iterations 1
DICPCG:  Solving for p, Initial residual = 0.00864278, Final residual = 0.00035777, No Iterations 3
DICPCG:  Solving for p, Initial residual = 0.000941239, Final residual = 3.95729e-05, No Iterations 54
DICPCG:  Solving for p, Initial residual = 0.00044749, Final residual = 1.82908e-05, No Iterations 5
time step continuity errors : sum local = 4.11044e-09, global = -2.14329e-10, cumulative = -1.9074e-08
DICPCG:  Solving for p, Initial residual = 0.00019019, Final residual = 8.00297e-06, No Iterations 15
DICPCG:  Solving for p, Initial residual = 3.21692e-05, Final residual = 1.29816e-06, No Iterations 41
DICPCG:  Solving for p, Initial residual = 2.29985e-05, Final residual = 8.51799e-07, No Iterations 5
time step continuity errors : sum local = 1.91461e-10, global = 1.08153e-11, cumulative = -1.90632e-08
ExecutionTime = 0.25 s  ClockTime = 1 s

Time = 2.45

Courant Number mean: 0.059309 max: 0.191487
smoothSolver:  Solving for Ux, Initial residual = 0.00111357, Final residual = 7.74867e-07, No Iterations 1
smoothSolver:  Solving for Uy, Initial residual = 0.0010433, Final residual = 8.04113e-07, No Iterations 1
DICPCG:  Solving for p, Initial residual = 0.0077107, Final residual = 0.000367249, No Iterations 3
DICPCG:  Solving for p, Initial residual = 0.000886914, Final residual = 4.42902e-05, No Iterations 52
DICPCG:  Solving for p, Initial residual = 0.000441195, Final residual = 2.16266e-05, No Iterations 5
time step continuity errors : sum local = 4.81091e-09, global = -4.13671e-10, cumulative = -1.94769e-08
DICPCG:  Solving for p, Initial residual = 0.000173104, Final residual = 8.52785e-06, No Iterations 15
DICPCG:  Solving for p, Initial residual = 3.26401e-05, Final residual = 1.44879e-06, No Iterations 45
DICPCG:  Solving for p, Initial residual = 2.21229e-05, Final residual = 8.64312e-07, No Iterations 4
time step continuity errors : sum local = 1.92304e-10, global = 7.73706e-13, cumulative = -1.94761e-08
ExecutionTime = 0.26 s  ClockTime = 1 s

Time = 2.5

Courant Number mean: 0.0593089 max: 0.191467
smoothSolver:  Solving for Ux, Initial residual = 0.00109482, Final residual = 7.58867e-07, No Iterations 1
smoothSolver:  Solving for Uy, Initial residual = 0.00102702, Final residual = 7.90238e-07, No Iterations 1
DICPCG:  Solving for p, Initial residual = 0.00807238, Final residual = 0.000333631, No Iterations 3
DICPCG:  Solving for p, Initial residual = 0.000883891, Final residual = 3.12875e-05, No Iterations 51
DICPCG:  Solving for p, Initial residual = 0.000448168, Final residual = 1.84764e-05, No Iterations 4
time step continuity errors : sum local = 4.06888e-09, global = -1.86253e-10, cumulative = -1.96624e-08
DICPCG:  Solving for p, Initial residual = 0.000181092, Final residual = 7.47752e-06, No Iterations 14
DICPCG:  Solving for p, Initial residual = 3.06738e-05, Final residual = 1.3596e-06, No Iterations 46
DICPCG:  Solving for p, Initial residual = 2.35477e-05, Final residual = 9.56203e-07, No Iterations 4
time step continuity errors : sum local = 2.10626e-10, global = 2.21051e-11, cumulative = -1.96403e-08
ExecutionTime = 0.26 s  ClockTime = 1 s

Time = 2.55

Courant Number mean: 0.0593088 max: 0.191447
smoothSolver:  Solving for Ux, Initial residual = 0.00107692, Final residual = 7.41039e-07, No Iterations 1
smoothSolver:  Solving for Uy, Initial residual = 0.0010114, Final residual = 7.77746e-07, No Iterations 1
DICPCG:  Solving for p, Initial residual = 0.00744911, Final residual = 0.00030882, No Iterations 3
DICPCG:  Solving for p, Initial residual = 0.000813912, Final residual = 3.93371e-05, No Iterations 49
DICPCG:  Solving for p, Initial residual = 0.000419091, Final residual = 2.06047e-05, No Iterations 7
time step continuity errors : sum local = 4.4941e-09, global = -3.78393e-10, cumulative = -2.00187e-08
DICPCG:  Solving for p, Initial residual = 0.000172715, Final residual = 8.20259e-06, No Iterations 12
DICPCG:  Solving for p, Initial residual = 3.02587e-05, Final residual = 1.27442e-06, No Iterations 46
DICPCG:  Solving for p, Initial residual = 2.2811e-05, Final residual = 9.93886e-07, No Iterations 4
time step continuity errors : sum local = 2.16818e-10, global = 5.46558e-13, cumulative = -2.00181e-08
ExecutionTime = 0.27 s  ClockTime = 1 s

Time = 2.6

Courant Number mean: 0.0593088 max: 0.191427
smoothSolver:  Solving for Ux, Initial residual = 0.00105916, Final residual = 7.2599e-07, No Iterations 1
smoothSolver:  Solving for Uy, Initial residual = 0.000996282, Final residual = 7.66506e-07, No Iterations 1
DICPCG:  Solving for p, Initial residual = 0.00728066, Final residual = 0.000307622, No Iterations 3
DICPCG:  Solving for p, Initial residual = 0.000789993, Final residual = 3.6295e-05, No Iterations 53
DICPCG:  Solving for p, Initial residual = 0.000423117, Final residual = 1.89468e-05, No Iterations 5
time step continuity errors : sum local = 4.09112e-09, global = -3.7406e-10, cumulative = -2.03922e-08
DICPCG:  Solving for p, Initial residual = 0.000162, Final residual = 7.80295e-06, No Iterations 14
DICPCG:  Solving for p, Initial residual = 2.92404e-05, Final residual = 1.32839e-06, No Iterations 46
DICPCG:  Solving for p, Initial residual = 2.22471e-05, Final residual = 8.99044e-07, No Iterations 4
time step continuity errors : sum local = 1.94164e-10, global = 7.85449e-12, cumulative = -2.03843e-08
ExecutionTime = 0.27 s  ClockTime = 1 s

Time = 2.65

Courant Number mean: 0.0593088 max: 0.191408
smoothSolver:  Solving for Ux, Initial residual = 0.00104188, Final residual = 7.0777e-07, No Iterations 1
smoothSolver:  Solving for Uy, Initial residual = 0.000981886, Final residual = 7.51812e-07, No Iterations 1
DICPCG:  Solving for p, Initial residual = 0.00704122, Final residual = 0.000322286, No Iterations 3
DICPCG:  Solving for p, Initial residual = 0.000779722, Final residual = 3.60715e-05, No Iterations 53
DICPCG:  Solving for p, Initial residual = 0.000412006, Final residual = 1.88805e-05, No Iterations 5
time step continuity errors : sum local = 4.03845e-09, global = -3.45936e-10, cumulative = -2.07303e-08
DICPCG:  Solving for p, Initial residual = 0.000155562, Final residual = 7.6135e-06, No Iterations 14
DICPCG:  Solving for p, Initial residual = 2.86473e-05, Final residual = 1.33796e-06, No Iterations 46
DICPCG:  Solving for p, Initial residual = 2.0526e-05, Final residual = 8.48067e-07, No Iterations 4
time step continuity errors : sum local = 1.8143e-10, global = 1.12162e-11, cumulative = -2.0719e-08
ExecutionTime = 0.28 s  ClockTime = 1 s

Time = 2.7

Courant Number mean: 0.0593088 max: 0.19139
smoothSolver:  Solving for Ux, Initial residual = 0.00102472, Final residual = 6.90259e-07, No Iterations 1
smoothSolver:  Solving for Uy, Initial residual = 0.000968355, Final residual = 7.38022e-07, No Iterations 1
DICPCG:  Solving for p, Initial residual = 0.00655865, Final residual = 0.000308699, No Iterations 3
DICPCG:  Solving for p, Initial residual = 0.000721204, Final residual = 2.58907e-05, No Iterations 52
DICPCG:  Solving for p, Initial residual = 0.000378218, Final residual = 1.49463e-05, No Iterations 5
time step continuity errors : sum local = 3.17279e-09, global = -1.8953e-10, cumulative = -2.09086e-08
DICPCG:  Solving for p, Initial residual = 0.000148896, Final residual = 7.23416e-06, No Iterations 14
DICPCG:  Solving for p, Initial residual = 2.55874e-05, Final residual = 1.05642e-06, No Iterations 47
DICPCG:  Solving for p, Initial residual = 1.94992e-05, Final residual = 9.9512e-07, No Iterations 3
time step continuity errors : sum local = 2.11282e-10, global = 1.03615e-11, cumulative = -2.08982e-08
ExecutionTime = 0.28 s  ClockTime = 1 s

Time = 2.75

Courant Number mean: 0.0593088 max: 0.191374
smoothSolver:  Solving for Ux, Initial residual = 0.001008, Final residual = 6.7996e-07, No Iterations 1
smoothSolver:  Solving for Uy, Initial residual = 0.000955921, Final residual = 7.26176e-07, No Iterations 1
DICPCG:  Solving for p, Initial residual = 0.00650216, Final residual = 0.000287524, No Iterations 3
DICPCG:  Solving for p, Initial residual = 0.000701522, Final residual = 3.30511e-05, No Iterations 52
DICPCG:  Solving for p, Initial residual = 0.000330244, Final residual = 1.5155e-05, No Iterations 5
time step continuity errors : sum local = 3.19326e-09, global = -1.74532e-10, cumulative = -2.10727e-08
DICPCG:  Solving for p, Initial residual = 0.000147002, Final residual = 6.99009e-06, No Iterations 14
DICPCG:  Solving for p, Initial residual = 2.43535e-05, Final residual = 1.15796e-06, No Iterations 47
DICPCG:  Solving for p, Initial residual = 1.74082e-05, Final residual = 8.65171e-07, No Iterations 10
time step continuity errors : sum local = 1.82327e-10, global = 1.65146e-11, cumulative = -2.10562e-08
ExecutionTime = 0.29 s  ClockTime = 1 s

Time = 2.8

Courant Number mean: 0.0593088 max: 0.19136
smoothSolver:  Solving for Ux, Initial residual = 0.000992259, Final residual = 6.67594e-07, No Iterations 1
smoothSolver:  Solving for Uy, Initial residual = 0.000943872, Final residual = 7.13437e-07, No Iterations 1
DICPCG:  Solving for p, Initial residual = 0.00633438, Final residual = 0.000269722, No Iterations 3
DICPCG:  Solving for p, Initial residual = 0.000672591, Final residual = 2.73811e-05, No Iterations 53
DICPCG:  Solving for p, Initial residual = 0.000334184, Final residual = 1.33491e-05, No Iterations 5
time step continuity errors : sum local = 2.79281e-09, global = -9.22791e-11, cumulative = -2.11485e-08
DICPCG:  Solving for p, Initial residual = 0.000144911, Final residual = 7.10423e-06, No Iterations 14
DICPCG:  Solving for p, Initial residual = 2.31214e-05, Final residual = 9.94701e-07, No Iterations 47
DICPCG:  Solving for p, Initial residual = 1.75053e-05, Final residual = 9.12774e-07, No Iterations 3
time step continuity errors : sum local = 1.90996e-10, global = 1.19925e-11, cumulative = -2.11365e-08
ExecutionTime = 0.29 s  ClockTime = 1 s

Time = 2.85

Courant Number mean: 0.0593087 max: 0.191348
smoothSolver:  Solving for Ux, Initial residual = 0.000977747, Final residual = 6.56239e-07, No Iterations 1
smoothSolver:  Solving for Uy, Initial residual = 0.000932219, Final residual = 7.01422e-07, No Iterations 1
DICPCG:  Solving for p, Initial residual = 0.00619636, Final residual = 0.000252085, No Iterations 3
DICPCG:  Solving for p, Initial residual = 0.000656967, Final residual = 2.64944e-05, No Iterations 52
DICPCG:  Solving for p, Initial residual = 0.000334411, Final residual = 1.63149e-05, No Iterations 6
time step continuity errors : sum local = 3.38821e-09, global = -9.26867e-11, cumulative = -2.12292e-08
DICPCG:  Solving for p, Initial residual = 0.000140643, Final residual = 6.99252e-06, No Iterations 14
DICPCG:  Solving for p, Initial residual = 2.39369e-05, Final residual = 9.71877e-07, No Iterations 43
DICPCG:  Solving for p, Initial residual = 1.69049e-05, Final residual = 9.55706e-07, No Iterations 3
time step continuity errors : sum local = 1.98509e-10, global = 8.507e-12, cumulative = -2.12207e-08
ExecutionTime = 0.3 s  ClockTime = 1 s

Time = 2.9

Courant Number mean: 0.0593086 max: 0.191341
smoothSolver:  Solving for Ux, Initial residual = 0.000964241, Final residual = 6.47041e-07, No Iterations 1
smoothSolver:  Solving for Uy, Initial residual = 0.000920596, Final residual = 6.90142e-07, No Iterations 1
DICPCG:  Solving for p, Initial residual = 0.00654315, Final residual = 0.000292163, No Iterations 3
DICPCG:  Solving for p, Initial residual = 0.000745234, Final residual = 2.72597e-05, No Iterations 52
DICPCG:  Solving for p, Initial residual = 0.000345886, Final residual = 1.42463e-05, No Iterations 5
time step continuity errors : sum local = 2.93676e-09, global = -7.45738e-11, cumulative = -2.12953e-08
DICPCG:  Solving for p, Initial residual = 0.000146265, Final residual = 7.00035e-06, No Iterations 14
DICPCG:  Solving for p, Initial residual = 2.48129e-05, Final residual = 9.37323e-07, No Iterations 45
DICPCG:  Solving for p, Initial residual = 1.77887e-05, Final residual = 9.63059e-07, No Iterations 3
time step continuity errors : sum local = 1.98562e-10, global = 6.57296e-12, cumulative = -2.12887e-08
ExecutionTime = 0.3 s  ClockTime = 1 s

Time = 2.95

Courant Number mean: 0.0593086 max: 0.191338
smoothSolver:  Solving for Ux, Initial residual = 0.000951375, Final residual = 6.3823e-07, No Iterations 1
smoothSolver:  Solving for Uy, Initial residual = 0.00090921, Final residual = 6.79884e-07, No Iterations 1
DICPCG:  Solving for p, Initial residual = 0.00591651, Final residual = 0.00026131, No Iterations 3
DICPCG:  Solving for p, Initial residual = 0.000654812, Final residual = 2.70795e-05, No Iterations 54
DICPCG:  Solving for p, Initial residual = 0.000337309, Final residual = 1.54172e-05, No Iterations 6
time step continuity errors : sum local = 3.15644e-09, global = -8.67059e-11, cumulative = -2.13754e-08
DICPCG:  Solving for p, Initial residual = 0.000135294, Final residual = 6.73578e-06, No Iterations 12
DICPCG:  Solving for p, Initial residual = 2.36601e-05, Final residual = 9.94785e-07, No Iterations 51
DICPCG:  Solving for p, Initial residual = 1.63479e-05, Final residual = 8.34934e-07, No Iterations 5
time step continuity errors : sum local = 1.70965e-10, global = 6.10221e-12, cumulative = -2.13693e-08
ExecutionTime = 0.31 s  ClockTime = 1 s

Time = 3

Courant Number mean: 0.0593086 max: 0.191341
smoothSolver:  Solving for Ux, Initial residual = 0.000939224, Final residual = 6.29489e-07, No Iterations 1
smoothSolver:  Solving for Uy, Initial residual = 0.000898123, Final residual = 6.69751e-07, No Iterations 1
DICPCG:  Solving for p, Initial residual = 0.005663, Final residual = 0.000281963, No Iterations 3
DICPCG:  Solving for p, Initial residual = 0.000636156, Final residual = 2.22313e-05, No Iterations 55
DICPCG:  Solving for p, Initial residual = 0.000319702, Final residual = 1.22208e-05, No Iterations 3
time step continuity errors : sum local = 2.48537e-09, global = -3.39676e-11, cumulative = -2.14033e-08
DICPCG:  Solving for p, Initial residual = 0.000126656, Final residual = 5.06287e-06, No Iterations 14
DICPCG:  Solving for p, Initial residual = 2.09303e-05, Final residual = 8.60164e-07, No Iterations 46
DICPCG:  Solving for p, Initial residual = 1.54914e-05, Final residual = 7.95563e-07, No Iterations 3
time step continuity errors : sum local = 1.6182e-10, global = 4.99606e-12, cumulative = -2.13983e-08
ExecutionTime = 0.31 s  ClockTime = 1 s

Time = 3.05

Courant Number mean: 0.0593086 max: 0.19135
smoothSolver:  Solving for Ux, Initial residual = 0.000927179, Final residual = 6.21984e-07, No Iterations 1
smoothSolver:  Solving for Uy, Initial residual = 0.000887318, Final residual = 6.60704e-07, No Iterations 1
DICPCG:  Solving for p, Initial residual = 0.00578607, Final residual = 0.00028178, No Iterations 3
DICPCG:  Solving for p, Initial residual = 0.000635564, Final residual = 3.07724e-05, No Iterations 51
DICPCG:  Solving for p, Initial residual = 0.000318094, Final residual = 1.42895e-05, No Iterations 6
time step continuity errors : sum local = 2.88719e-09, global = -5.15002e-11, cumulative = -2.14498e-08
DICPCG:  Solving for p, Initial residual = 0.000133624, Final residual = 6.49512e-06, No Iterations 14
DICPCG:  Solving for p, Initial residual = 2.26242e-05, Final residual = 1.13037e-06, No Iterations 47
DICPCG:  Solving for p, Initial residual = 1.50941e-05, Final residual = 8.8138e-07, No Iterations 3
time step continuity errors : sum local = 1.78108e-10, global = 8.50707e-12, cumulative = -2.14413e-08
ExecutionTime = 0.32 s  ClockTime = 1 s

Time = 3.1

Courant Number mean: 0.0593086 max: 0.191364
smoothSolver:  Solving for Ux, Initial residual = 0.000915253, Final residual = 6.13975e-07, No Iterations 1
smoothSolver:  Solving for Uy, Initial residual = 0.000877115, Final residual = 6.53233e-07, No Iterations 1
DICPCG:  Solving for p, Initial residual = 0.00607676, Final residual = 0.00025264, No Iterations 4
DICPCG:  Solving for p, Initial residual = 0.000674309, Final residual = 2.75174e-05, No Iterations 54
DICPCG:  Solving for p, Initial residual = 0.000333988, Final residual = 1.41661e-05, No Iterations 6
time step continuity errors : sum local = 2.84407e-09, global = -9.21765e-11, cumulative = -2.15334e-08
DICPCG:  Solving for p, Initial residual = 0.000136584, Final residual = 6.49507e-06, No Iterations 15
DICPCG:  Solving for p, Initial residual = 2.34046e-05, Final residual = 8.3565e-07, No Iterations 46
DICPCG:  Solving for p, Initial residual = 1.53764e-05, Final residual = 8.06562e-07, No Iterations 3
time step continuity errors : sum local = 1.61956e-10, global = 1.02178e-12, cumulative = -2.15324e-08
ExecutionTime = 0.32 s  ClockTime = 1 s

Time = 3.15

Courant Number mean: 0.0593085 max: 0.191383
smoothSolver:  Solving for Ux, Initial residual = 0.000903738, Final residual = 6.04435e-07, No Iterations 1
smoothSolver:  Solving for Uy, Initial residual = 0.000867312, Final residual = 6.45667e-07, No Iterations 1
DICPCG:  Solving for p, Initial residual = 0.00541313, Final residual = 0.000270521, No Iterations 3
DICPCG:  Solving for p, Initial residual = 0.000615065, Final residual = 2.53181e-05, No Iterations 52
DICPCG:  Solving for p, Initial residual = 0.000298942, Final residual = 1.42567e-05, No Iterations 5
time step continuity errors : sum local = 2.84571e-09, global = -2.02766e-10, cumulative = -2.17352e-08
DICPCG:  Solving for p, Initial residual = 0.000118971, Final residual = 5.6408e-06, No Iterations 15
DICPCG:  Solving for p, Initial residual = 2.13285e-05, Final residual = 9.01022e-07, No Iterations 46
DICPCG:  Solving for p, Initial residual = 1.44553e-05, Final residual = 8.39805e-07, No Iterations 3
time step continuity errors : sum local = 1.67652e-10, global = 6.64535e-12, cumulative = -2.17285e-08
ExecutionTime = 0.33 s  ClockTime = 1 s

Time = 3.2

Courant Number mean: 0.0593085 max: 0.191406
smoothSolver:  Solving for Ux, Initial residual = 0.000892331, Final residual = 5.94357e-07, No Iterations 1
smoothSolver:  Solving for Uy, Initial residual = 0.000857479, Final residual = 6.37263e-07, No Iterations 1
DICPCG:  Solving for p, Initial residual = 0.0052488, Final residual = 0.000220496, No Iterations 4
DICPCG:  Solving for p, Initial residual = 0.00056951, Final residual = 2.73061e-05, No Iterations 49
DICPCG:  Solving for p, Initial residual = 0.00028195, Final residual = 1.40562e-05, No Iterations 6
time step continuity errors : sum local = 2.78964e-09, global = -2.34696e-10, cumulative = -2.19632e-08
DICPCG:  Solving for p, Initial residual = 0.000111543, Final residual = 5.50804e-06, No Iterations 14
DICPCG:  Solving for p, Initial residual = 2.0324e-05, Final residual = 7.71256e-07, No Iterations 46
DICPCG:  Solving for p, Initial residual = 1.36842e-05, Final residual = 6.87136e-07, No Iterations 3
time step continuity errors : sum local = 1.36386e-10, global = 5.42893e-12, cumulative = -2.19578e-08
ExecutionTime = 0.33 s  ClockTime = 1 s

Time = 3.25

Courant Number mean: 0.0593084 max: 0.191434
smoothSolver:  Solving for Ux, Initial residual = 0.000882024, Final residual = 5.82895e-07, No Iterations 1
smoothSolver:  Solving for Uy, Initial residual = 0.000847681, Final residual = 6.2767e-07, No Iterations 1
DICPCG:  Solving for p, Initial residual = 0.00531397, Final residual = 0.000229158, No Iterations 4
DICPCG:  Solving for p, Initial residual = 0.000625458, Final residual = 2.61669e-05, No Iterations 53
DICPCG:  Solving for p, Initial residual = 0.000285539, Final residual = 1.18737e-05, No Iterations 5
time step continuity errors : sum local = 2.34214e-09, global = -4.41902e-11, cumulative = -2.2002e-08
DICPCG:  Solving for p, Initial residual = 0.000117293, Final residual = 5.6304e-06, No Iterations 15
DICPCG:  Solving for p, Initial residual = 2.02417e-05, Final residual = 8.84238e-07, No Iterations 46
DICPCG:  Solving for p, Initial residual = 1.30342e-05, Final residual = 6.56515e-07, No Iterations 3
time step continuity errors : sum local = 1.29515e-10, global = 6.01882e-12, cumulative = -2.1996e-08
ExecutionTime = 0.34 s  ClockTime = 1 s

Time = 3.3

Courant Number mean: 0.0593084 max: 0.191466
smoothSolver:  Solving for Ux, Initial residual = 0.000871169, Final residual = 5.72316e-07, No Iterations 1
smoothSolver:  Solving for Uy, Initial residual = 0.00083841, Final residual = 6.16457e-07, No Iterations 1
DICPCG:  Solving for p, Initial residual = 0.005415, Final residual = 0.000218598, No Iterations 4
DICPCG:  Solving for p, Initial residual = 0.000617613, Final residual = 2.62703e-05, No Iterations 53
DICPCG:  Solving for p, Initial residual = 0.000272628, Final residual = 1.12923e-05, No Iterations 5
time step continuity errors : sum local = 2.21419e-09, global = -1.27962e-10, cumulative = -2.21239e-08
DICPCG:  Solving for p, Initial residual = 0.000116065, Final residual = 5.78732e-06, No Iterations 13
DICPCG:  Solving for p, Initial residual = 2.14375e-05, Final residual = 7.87534e-07, No Iterations 47
DICPCG:  Solving for p, Initial residual = 1.24748e-05, Final residual = 6.55468e-07, No Iterations 3
time step continuity errors : sum local = 1.28538e-10, global = 6.97978e-12, cumulative = -2.2117e-08
ExecutionTime = 0.34 s  ClockTime = 1 s

Time = 3.35

Courant Number mean: 0.0593084 max: 0.191503
smoothSolver:  Solving for Ux, Initial residual = 0.000859562, Final residual = 5.64731e-07, No Iterations 1
smoothSolver:  Solving for Uy, Initial residual = 0.000829631, Final residual = 6.07022e-07, No Iterations 1
DICPCG:  Solving for p, Initial residual = 0.00547846, Final residual = 0.000220267, No Iterations 4
DICPCG:  Solving for p, Initial residual = 0.00063797, Final residual = 2.95822e-05, No Iterations 53
DICPCG:  Solving for p, Initial residual = 0.000255769, Final residual = 1.23908e-05, No Iterations 6
time step continuity errors : sum local = 2.41477e-09, global = -1.36581e-10, cumulative = -2.22535e-08
DICPCG:  Solving for p, Initial residual = 0.000121816, Final residual = 5.38758e-06, No Iterations 12
DICPCG:  Solving for p, Initial residual = 2.39617e-05, Final residual = 1.18652e-06, No Iterations 50
DICPCG:  Solving for p, Initial residual = 1.11008e-05, Final residual = 8.22719e-07, No Iterations 3
time step continuity errors : sum local = 1.60346e-10, global = -1.43028e-11, cumulative = -2.22678e-08
ExecutionTime = 0.35 s  ClockTime = 1 s

Time = 3.4

Courant Number mean: 0.0593083 max: 0.191545
smoothSolver:  Solving for Ux, Initial residual = 0.000848044, Final residual = 5.5681e-07, No Iterations 1
smoothSolver:  Solving for Uy, Initial residual = 0.000821241, Final residual = 5.94827e-07, No Iterations 1
DICPCG:  Solving for p, Initial residual = 0.00540014, Final residual = 0.000214125, No Iterations 4
DICPCG:  Solving for p, Initial residual = 0.000582076, Final residual = 2.7494e-05, No Iterations 53
DICPCG:  Solving for p, Initial residual = 0.000250625, Final residual = 9.40587e-06, No Iterations 6
time step continuity errors : sum local = 1.82216e-09, global = -9.20462e-11, cumulative = -2.23599e-08
DICPCG:  Solving for p, Initial residual = 0.000117521, Final residual = 5.58313e-06, No Iterations 12
DICPCG:  Solving for p, Initial residual = 2.14884e-05, Final residual = 1.04554e-06, No Iterations 45
DICPCG:  Solving for p, Initial residual = 1.13289e-05, Final residual = 9.76342e-07, No Iterations 2
time step continuity errors : sum local = 1.89159e-10, global = 3.34041e-12, cumulative = -2.23565e-08
ExecutionTime = 0.35 s  ClockTime = 1 s

Time = 3.45

Courant Number mean: 0.0593083 max: 0.191592
smoothSolver:  Solving for Ux, Initial residual = 0.000836728, Final residual = 5.48634e-07, No Iterations 1
smoothSolver:  Solving for Uy, Initial residual = 0.000812442, Final residual = 5.83658e-07, No Iterations 1
DICPCG:  Solving for p, Initial residual = 0.00504697, Final residual = 0.000219144, No Iterations 4
DICPCG:  Solving for p, Initial residual = 0.000546581, Final residual = 2.57533e-05, No Iterations 53
DICPCG:  Solving for p, Initial residual = 0.000242401, Final residual = 1.13378e-05, No Iterations 5
time step continuity errors : sum local = 2.18651e-09, global = -8.41725e-11, cumulative = -2.24407e-08
DICPCG:  Solving for p, Initial residual = 0.000108229, Final residual = 4.66624e-06, No Iterations 13
DICPCG:  Solving for p, Initial residual = 1.9454e-05, Final residual = 5.90275e-07, No Iterations 44
DICPCG:  Solving for p, Initial residual = 1.02455e-05, Final residual = 8.43856e-07, No Iterations 2
time step continuity errors : sum local = 1.62752e-10, global = 4.18634e-12, cumulative = -2.24365e-08
ExecutionTime = 0.36 s  ClockTime = 1 s

Time = 3.5

Courant Number mean: 0.0593082 max: 0.191644
smoothSolver:  Solving for Ux, Initial residual = 0.000826436, Final residual = 5.4098e-07, No Iterations 1
smoothSolver:  Solving for Uy, Initial residual = 0.000804165, Final residual = 5.73366e-07, No Iterations 1
DICPCG:  Solving for p, Initial residual = 0.00497373, Final residual = 0.000227113, No Iterations 4
DICPCG:  Solving for p, Initial residual = 0.000539228, Final residual = 2.66844e-05, No Iterations 52
DICPCG:  Solving for p, Initial residual = 0.000223679, Final residual = 8.80096e-06, No Iterations 6
time step continuity errors : sum local = 1.69188e-09, global = -1.44592e-10, cumulative = -2.25811e-08
DICPCG:  Solving for p, Initial residual = 0.000106658, Final residual = 4.58749e-06, No Iterations 13
[...]
DICPCG:  Solving for p, Initial residual = 8.97494e-05, Final residual = 4.42668e-06, No Iterations 5
time step continuity errors : sum local = 7.37215e-10, global = -3.21745e-11, cumulative = -2.69251e-08
DICPCG:  Solving for p, Initial residual = 3.106e-05, Final residual = 1.44482e-06, No Iterations 44
DICPCG:  Solving for p, Initial residual = 7.52606e-06, Final residual = 9.36681e-07, No Iterations 4
DICPCG:  Solving for p, Initial residual = 1.3901e-06, Final residual = 5.5867e-07, No Iterations 1
time step continuity errors : sum local = 9.30425e-11, global = -1.66704e-11, cumulative = -2.69418e-08
ExecutionTime = 0.82 s  ClockTime = 1 s

Time = 8.2

Courant Number mean: 0.0592823 max: 0.204064
smoothSolver:  Solving for Ux, Initial residual = 0.000394823, Final residual = 2.29601e-07, No Iterations 1
smoothSolver:  Solving for Uy, Initial residual = 0.000385937, Final residual = 2.35534e-07, No Iterations 1
DICPCG:  Solving for p, Initial residual = 0.00146637, Final residual = 6.8767e-05, No Iterations 5
DICPCG:  Solving for p, Initial residual = 0.000188197, Final residual = 7.11701e-06, No Iterations 54
DICPCG:  Solving for p, Initial residual = 9.33377e-05, Final residual = 3.65465e-06, No Iterations 5
time step continuity errors : sum local = 6.08471e-10, global = -3.55127e-11, cumulative = -2.69773e-08
DICPCG:  Solving for p, Initial residual = 3.27079e-05, Final residual = 1.61134e-06, No Iterations 19
DICPCG:  Solving for p, Initial residual = 6.59559e-06, Final residual = 9.40506e-07, No Iterations 32
DICPCG:  Solving for p, Initial residual = 4.14876e-06, Final residual = 7.40985e-07, No Iterations 1
time step continuity errors : sum local = 1.23372e-10, global = -1.48706e-11, cumulative = -2.69922e-08
ExecutionTime = 0.82 s  ClockTime = 1 s

Time = 8.25

Courant Number mean: 0.0592822 max: 0.204122
smoothSolver:  Solving for Ux, Initial residual = 0.000391825, Final residual = 2.27406e-07, No Iterations 1
smoothSolver:  Solving for Uy, Initial residual = 0.00038368, Final residual = 2.33751e-07, No Iterations 1
DICPCG:  Solving for p, Initial residual = 0.00143491, Final residual = 6.50602e-05, No Iterations 5
DICPCG:  Solving for p, Initial residual = 0.000182964, Final residual = 8.29623e-06, No Iterations 54
DICPCG:  Solving for p, Initial residual = 9.10966e-05, Final residual = 4.17534e-06, No Iterations 5
time step continuity errors : sum local = 6.94956e-10, global = -3.50444e-11, cumulative = -2.70272e-08
DICPCG:  Solving for p, Initial residual = 3.24842e-05, Final residual = 1.6165e-06, No Iterations 17
DICPCG:  Solving for p, Initial residual = 6.80297e-06, Final residual = 8.68828e-07, No Iterations 27
DICPCG:  Solving for p, Initial residual = 3.99681e-06, Final residual = 7.39952e-07, No Iterations 1
time step continuity errors : sum local = 1.23163e-10, global = -1.42548e-11, cumulative = -2.70415e-08
ExecutionTime = 0.82 s  ClockTime = 1 s

Time = 8.3

Courant Number mean: 0.059282 max: 0.204177
smoothSolver:  Solving for Ux, Initial residual = 0.000388914, Final residual = 2.25083e-07, No Iterations 1
smoothSolver:  Solving for Uy, Initial residual = 0.000381455, Final residual = 2.3171e-07, No Iterations 1
DICPCG:  Solving for p, Initial residual = 0.00141343, Final residual = 6.30601e-05, No Iterations 5
DICPCG:  Solving for p, Initial residual = 0.000179124, Final residual = 7.39316e-06, No Iterations 55
DICPCG:  Solving for p, Initial residual = 9.18179e-05, Final residual = 3.77264e-06, No Iterations 5
time step continuity errors : sum local = 6.27769e-10, global = -3.504e-11, cumulative = -2.70765e-08
DICPCG:  Solving for p, Initial residual = 3.16381e-05, Final residual = 1.5501e-06, No Iterations 40
DICPCG:  Solving for p, Initial residual = 7.52021e-06, Final residual = 9.97382e-07, No Iterations 8
DICPCG:  Solving for p, Initial residual = 1.72498e-06, Final residual = 5.85847e-07, No Iterations 1
time step continuity errors : sum local = 9.74875e-11, global = -1.21715e-11, cumulative = -2.70887e-08
ExecutionTime = 0.83 s  ClockTime = 1 s

Time = 8.35

Courant Number mean: 0.0592818 max: 0.204231
smoothSolver:  Solving for Ux, Initial residual = 0.000385994, Final residual = 2.21881e-07, No Iterations 1
smoothSolver:  Solving for Uy, Initial residual = 0.000379348, Final residual = 2.28914e-07, No Iterations 1
DICPCG:  Solving for p, Initial residual = 0.00148809, Final residual = 7.43403e-05, No Iterations 5
DICPCG:  Solving for p, Initial residual = 0.000189208, Final residual = 8.96639e-06, No Iterations 54
DICPCG:  Solving for p, Initial residual = 8.84311e-05, Final residual = 4.35263e-06, No Iterations 5
time step continuity errors : sum local = 7.24201e-10, global = -2.97706e-11, cumulative = -2.71184e-08
DICPCG:  Solving for p, Initial residual = 3.335e-05, Final residual = 1.61016e-06, No Iterations 14
DICPCG:  Solving for p, Initial residual = 7.12771e-06, Final residual = 9.19409e-07, No Iterations 39
DICPCG:  Solving for p, Initial residual = 4.01241e-06, Final residual = 7.10641e-07, No Iterations 1
time step continuity errors : sum local = 1.18241e-10, global = -1.05293e-11, cumulative = -2.7129e-08
ExecutionTime = 0.83 s  ClockTime = 1 s

Time = 8.4

Courant Number mean: 0.0592817 max: 0.204283
smoothSolver:  Solving for Ux, Initial residual = 0.000383088, Final residual = 2.19716e-07, No Iterations 1
smoothSolver:  Solving for Uy, Initial residual = 0.000377206, Final residual = 2.2679e-07, No Iterations 1
DICPCG:  Solving for p, Initial residual = 0.00137293, Final residual = 6.28209e-05, No Iterations 5
DICPCG:  Solving for p, Initial residual = 0.00017093, Final residual = 7.14053e-06, No Iterations 55
DICPCG:  Solving for p, Initial residual = 8.70203e-05, Final residual = 3.51053e-06, No Iterations 5
time step continuity errors : sum local = 5.8405e-10, global = -3.09971e-11, cumulative = -2.716e-08
DICPCG:  Solving for p, Initial residual = 3.00789e-05, Final residual = 1.3961e-06, No Iterations 40
DICPCG:  Solving for p, Initial residual = 7.11836e-06, Final residual = 9.75066e-07, No Iterations 8
DICPCG:  Solving for p, Initial residual = 1.7129e-06, Final residual = 5.74415e-07, No Iterations 1
time step continuity errors : sum local = 9.55681e-11, global = -1.35127e-11, cumulative = -2.71735e-08
ExecutionTime = 0.83 s  ClockTime = 1 s

Time = 8.45

Courant Number mean: 0.0592815 max: 0.204333
smoothSolver:  Solving for Ux, Initial residual = 0.00038023, Final residual = 2.17193e-07, No Iterations 1
smoothSolver:  Solving for Uy, Initial residual = 0.000375057, Final residual = 2.24889e-07, No Iterations 1
DICPCG:  Solving for p, Initial residual = 0.00135631, Final residual = 6.00388e-05, No Iterations 5
DICPCG:  Solving for p, Initial residual = 0.000166741, Final residual = 7.193e-06, No Iterations 55
DICPCG:  Solving for p, Initial residual = 8.48542e-05, Final residual = 3.58876e-06, No Iterations 5
time step continuity errors : sum local = 5.96998e-10, global = -2.88033e-11, cumulative = -2.72023e-08
DICPCG:  Solving for p, Initial residual = 2.99908e-05, Final residual = 1.48897e-06, No Iterations 14
DICPCG:  Solving for p, Initial residual = 5.97354e-06, Final residual = 8.31451e-07, No Iterations 36
DICPCG:  Solving for p, Initial residual = 3.90408e-06, Final residual = 6.9507e-07, No Iterations 1
time step continuity errors : sum local = 1.15629e-10, global = -4.33511e-12, cumulative = -2.72066e-08
ExecutionTime = 0.84 s  ClockTime = 1 s

Time = 8.5

Courant Number mean: 0.0592813 max: 0.204382
smoothSolver:  Solving for Ux, Initial residual = 0.000377443, Final residual = 2.14982e-07, No Iterations 1
smoothSolver:  Solving for Uy, Initial residual = 0.000372898, Final residual = 2.23469e-07, No Iterations 1
DICPCG:  Solving for p, Initial residual = 0.00137606, Final residual = 6.04427e-05, No Iterations 5
DICPCG:  Solving for p, Initial residual = 0.00016738, Final residual = 7.53852e-06, No Iterations 55
DICPCG:  Solving for p, Initial residual = 8.35899e-05, Final residual = 3.5953e-06, No Iterations 5
time step continuity errors : sum local = 5.98013e-10, global = -2.86015e-11, cumulative = -2.72352e-08
DICPCG:  Solving for p, Initial residual = 3.07904e-05, Final residual = 1.46047e-06, No Iterations 14
DICPCG:  Solving for p, Initial residual = 5.93952e-06, Final residual = 9.0075e-07, No Iterations 36
DICPCG:  Solving for p, Initial residual = 3.81401e-06, Final residual = 6.9784e-07, No Iterations 1
time step continuity errors : sum local = 1.16075e-10, global = -4.47369e-12, cumulative = -2.72397e-08
ExecutionTime = 0.84 s  ClockTime = 1 s

Time = 8.55

Courant Number mean: 0.0592811 max: 0.204429
smoothSolver:  Solving for Ux, Initial residual = 0.000374974, Final residual = 2.13049e-07, No Iterations 1
smoothSolver:  Solving for Uy, Initial residual = 0.000370622, Final residual = 2.2195e-07, No Iterations 1
DICPCG:  Solving for p, Initial residual = 0.0012833, Final residual = 5.95633e-05, No Iterations 5
DICPCG:  Solving for p, Initial residual = 0.000159909, Final residual = 6.69389e-06, No Iterations 55
DICPCG:  Solving for p, Initial residual = 8.26786e-05, Final residual = 3.33249e-06, No Iterations 5
time step continuity errors : sum local = 5.54136e-10, global = -2.92109e-11, cumulative = -2.72689e-08
DICPCG:  Solving for p, Initial residual = 2.92254e-05, Final residual = 1.45214e-06, No Iterations 19
DICPCG:  Solving for p, Initial residual = 5.86726e-06, Final residual = 8.34034e-07, No Iterations 29
DICPCG:  Solving for p, Initial residual = 3.64369e-06, Final residual = 6.51501e-07, No Iterations 1
time step continuity errors : sum local = 1.08336e-10, global = -1.47891e-11, cumulative = -2.72837e-08
ExecutionTime = 0.85 s  ClockTime = 1 s

Time = 8.6

Courant Number mean: 0.0592809 max: 0.204474
smoothSolver:  Solving for Ux, Initial residual = 0.000372871, Final residual = 2.11255e-07, No Iterations 1
smoothSolver:  Solving for Uy, Initial residual = 0.000368407, Final residual = 2.20409e-07, No Iterations 1
DICPCG:  Solving for p, Initial residual = 0.00127812, Final residual = 5.83479e-05, No Iterations 5
DICPCG:  Solving for p, Initial residual = 0.0001606, Final residual = 7.20333e-06, No Iterations 54
DICPCG:  Solving for p, Initial residual = 8.2699e-05, Final residual = 3.8051e-06, No Iterations 5
time step continuity errors : sum local = 6.3252e-10, global = -2.44785e-11, cumulative = -2.73082e-08
DICPCG:  Solving for p, Initial residual = 2.96212e-05, Final residual = 1.47644e-06, No Iterations 13
DICPCG:  Solving for p, Initial residual = 6.19304e-06, Final residual = 8.22043e-07, No Iterations 37
DICPCG:  Solving for p, Initial residual = 4.07007e-06, Final residual = 6.96984e-07, No Iterations 1
time step continuity errors : sum local = 1.15862e-10, global = -1.02972e-11, cumulative = -2.73185e-08
ExecutionTime = 0.85 s  ClockTime = 1 s

Time = 8.65

Courant Number mean: 0.0592807 max: 0.204517
smoothSolver:  Solving for Ux, Initial residual = 0.000370885, Final residual = 2.09467e-07, No Iterations 1
smoothSolver:  Solving for Uy, Initial residual = 0.000366208, Final residual = 2.18759e-07, No Iterations 1
DICPCG:  Solving for p, Initial residual = 0.00126261, Final residual = 5.73194e-05, No Iterations 5
DICPCG:  Solving for p, Initial residual = 0.000157754, Final residual = 6.46667e-06, No Iterations 54
DICPCG:  Solving for p, Initial residual = 8.18951e-05, Final residual = 3.56983e-06, No Iterations 5
time step continuity errors : sum local = 5.93214e-10, global = -2.60517e-11, cumulative = -2.73445e-08
DICPCG:  Solving for p, Initial residual = 2.88965e-05, Final residual = 1.37524e-06, No Iterations 41
DICPCG:  Solving for p, Initial residual = 6.94709e-06, Final residual = 9.76221e-07, No Iterations 2
DICPCG:  Solving for p, Initial residual = 1.22972e-06, Final residual = 6.64565e-07, No Iterations 1
time step continuity errors : sum local = 1.10436e-10, global = -1.90308e-11, cumulative = -2.73636e-08
ExecutionTime = 0.85 s  ClockTime = 1 s

Time = 8.7

Courant Number mean: 0.0592805 max: 0.204559
smoothSolver:  Solving for Ux, Initial residual = 0.000368842, Final residual = 2.07952e-07, No Iterations 1
smoothSolver:  Solving for Uy, Initial residual = 0.000364131, Final residual = 2.17154e-07, No Iterations 1
DICPCG:  Solving for p, Initial residual = 0.00127279, Final residual = 5.6614e-05, No Iterations 5
DICPCG:  Solving for p, Initial residual = 0.000154632, Final residual = 5.85289e-06, No Iterations 54
DICPCG:  Solving for p, Initial residual = 8.1098e-05, Final residual = 3.40868e-06, No Iterations 5
time step continuity errors : sum local = 5.66284e-10, global = -2.48309e-11, cumulative = -2.73884e-08
DICPCG:  Solving for p, Initial residual = 2.86616e-05, Final residual = 1.42576e-06, No Iterations 13
DICPCG:  Solving for p, Initial residual = 5.82389e-06, Final residual = 7.88429e-07, No Iterations 37
DICPCG:  Solving for p, Initial residual = 4.03704e-06, Final residual = 6.94474e-07, No Iterations 1
time step continuity errors : sum local = 1.15376e-10, global = -6.45719e-12, cumulative = -2.73948e-08
ExecutionTime = 0.86 s  ClockTime = 1 s

Time = 8.75

Courant Number mean: 0.0592803 max: 0.2046
smoothSolver:  Solving for Ux, Initial residual = 0.000366715, Final residual = 2.0621e-07, No Iterations 1
smoothSolver:  Solving for Uy, Initial residual = 0.000362057, Final residual = 2.15372e-07, No Iterations 1
DICPCG:  Solving for p, Initial residual = 0.00123161, Final residual = 5.531e-05, No Iterations 5
DICPCG:  Solving for p, Initial residual = 0.000151782, Final residual = 6.47105e-06, No Iterations 54
DICPCG:  Solving for p, Initial residual = 8.13825e-05, Final residual = 3.54514e-06, No Iterations 5
time step continuity errors : sum local = 5.88745e-10, global = -2.71047e-11, cumulative = -2.7422e-08
DICPCG:  Solving for p, Initial residual = 2.82189e-05, Final residual = 1.40257e-06, No Iterations 13
DICPCG:  Solving for p, Initial residual = 5.86696e-06, Final residual = 7.78649e-07, No Iterations 37
DICPCG:  Solving for p, Initial residual = 4.05247e-06, Final residual = 6.85176e-07, No Iterations 1
time step continuity errors : sum local = 1.13791e-10, global = -7.87209e-12, cumulative = -2.74298e-08
ExecutionTime = 0.86 s  ClockTime = 1 s

Time = 8.8

Courant Number mean: 0.0592801 max: 0.204639
smoothSolver:  Solving for Ux, Initial residual = 0.000364539, Final residual = 2.0498e-07, No Iterations 1
smoothSolver:  Solving for Uy, Initial residual = 0.000360002, Final residual = 2.13728e-07, No Iterations 1
DICPCG:  Solving for p, Initial residual = 0.00123465, Final residual = 5.51266e-05, No Iterations 5
DICPCG:  Solving for p, Initial residual = 0.000152277, Final residual = 6.6413e-06, No Iterations 54
DICPCG:  Solving for p, Initial residual = 8.10677e-05, Final residual = 3.65845e-06, No Iterations 5
time step continuity errors : sum local = 6.07381e-10, global = -2.54248e-11, cumulative = -2.74552e-08
DICPCG:  Solving for p, Initial residual = 2.83763e-05, Final residual = 1.37172e-06, No Iterations 13
DICPCG:  Solving for p, Initial residual = 5.90071e-06, Final residual = 7.74189e-07, No Iterations 37
DICPCG:  Solving for p, Initial residual = 4.02777e-06, Final residual = 6.8514e-07, No Iterations 1
time step continuity errors : sum local = 1.13751e-10, global = -9.32353e-12, cumulative = -2.74646e-08
ExecutionTime = 0.86 s  ClockTime = 1 s

Time = 8.85

Courant Number mean: 0.0592799 max: 0.204676
smoothSolver:  Solving for Ux, Initial residual = 0.000362293, Final residual = 2.04276e-07, No Iterations 1
smoothSolver:  Solving for Uy, Initial residual = 0.00035801, Final residual = 2.12217e-07, No Iterations 1
DICPCG:  Solving for p, Initial residual = 0.00122992, Final residual = 5.50609e-05, No Iterations 5
DICPCG:  Solving for p, Initial residual = 0.000153003, Final residual = 6.7115e-06, No Iterations 54
DICPCG:  Solving for p, Initial residual = 8.01976e-05, Final residual = 3.56538e-06, No Iterations 5
time step continuity errors : sum local = 5.91724e-10, global = -2.58685e-11, cumulative = -2.74904e-08
DICPCG:  Solving for p, Initial residual = 2.84722e-05, Final residual = 1.38661e-06, No Iterations 41
DICPCG:  Solving for p, Initial residual = 6.93813e-06, Final residual = 9.1554e-07, No Iterations 8
DICPCG:  Solving for p, Initial residual = 1.63141e-06, Final residual = 5.36969e-07, No Iterations 1
time step continuity errors : sum local = 8.91194e-11, global = -1.31745e-11, cumulative = -2.75036e-08
ExecutionTime = 0.87 s  ClockTime = 1 s

Time = 8.9

Courant Number mean: 0.0592796 max: 0.204712
smoothSolver:  Solving for Ux, Initial residual = 0.000360171, Final residual = 2.03471e-07, No Iterations 1
smoothSolver:  Solving for Uy, Initial residual = 0.000355989, Final residual = 2.1082e-07, No Iterations 1
DICPCG:  Solving for p, Initial residual = 0.0011998, Final residual = 5.27319e-05, No Iterations 5
DICPCG:  Solving for p, Initial residual = 0.000146626, Final residual = 5.84736e-06, No Iterations 54
DICPCG:  Solving for p, Initial residual = 7.83305e-05, Final residual = 3.27713e-06, No Iterations 5
time step continuity errors : sum local = 5.43746e-10, global = -2.62886e-11, cumulative = -2.75299e-08
DICPCG:  Solving for p, Initial residual = 2.77492e-05, Final residual = 1.33149e-06, No Iterations 40
DICPCG:  Solving for p, Initial residual = 6.54092e-06, Final residual = 9.88872e-07, No Iterations 2
DICPCG:  Solving for p, Initial residual = 1.23159e-06, Final residual = 6.5556e-07, No Iterations 1
time step continuity errors : sum local = 1.08774e-10, global = -1.92567e-11, cumulative = -2.75492e-08
ExecutionTime = 0.87 s  ClockTime = 1 s

Time = 8.95

Courant Number mean: 0.0592794 max: 0.204747
smoothSolver:  Solving for Ux, Initial residual = 0.000358077, Final residual = 2.0227e-07, No Iterations 1
smoothSolver:  Solving for Uy, Initial residual = 0.000353982, Final residual = 2.0919e-07, No Iterations 1
DICPCG:  Solving for p, Initial residual = 0.00129907, Final residual = 4.79173e-05, No Iterations 5
DICPCG:  Solving for p, Initial residual = 0.000146024, Final residual = 6.75827e-06, No Iterations 54
DICPCG:  Solving for p, Initial residual = 8.12592e-05, Final residual = 3.86788e-06, No Iterations 5
time step continuity errors : sum local = 6.41573e-10, global = -1.11003e-11, cumulative = -2.75603e-08
DICPCG:  Solving for p, Initial residual = 3.10492e-05, Final residual = 1.47278e-06, No Iterations 13
DICPCG:  Solving for p, Initial residual = 6.03807e-06, Final residual = 9.72289e-07, No Iterations 36
DICPCG:  Solving for p, Initial residual = 4.28192e-06, Final residual = 7.65138e-07, No Iterations 1
time step continuity errors : sum local = 1.26918e-10, global = -6.96919e-12, cumulative = -2.75672e-08
ExecutionTime = 0.87 s  ClockTime = 1 s

Time = 9

Courant Number mean: 0.0592792 max: 0.20478
smoothSolver:  Solving for Ux, Initial residual = 0.000356144, Final residual = 2.00585e-07, No Iterations 1
smoothSolver:  Solving for Uy, Initial residual = 0.000351953, Final residual = 2.07522e-07, No Iterations 1
DICPCG:  Solving for p, Initial residual = 0.00162258, Final residual = 5.91828e-05, No Iterations 5
DICPCG:  Solving for p, Initial residual = 0.000198508, Final residual = 8.42594e-06, No Iterations 46
DICPCG:  Solving for p, Initial residual = 9.28145e-05, Final residual = 3.98443e-06, No Iterations 5
time step continuity errors : sum local = 6.6106e-10, global = 8.57931e-12, cumulative = -2.75587e-08
DICPCG:  Solving for p, Initial residual = 4.2855e-05, Final residual = 2.11869e-06, No Iterations 15
DICPCG:  Solving for p, Initial residual = 9.84783e-06, Final residual = 9.63555e-07, No Iterations 39
DICPCG:  Solving for p, Initial residual = 5.05469e-06, Final residual = 9.04986e-07, No Iterations 1
time step continuity errors : sum local = 1.5015e-10, global = -6.31538e-12, cumulative = -2.7565e-08
ExecutionTime = 0.88 s  ClockTime = 1 s

End

